BGI
  CCTOOLS-0919241033

 60 62  0  0  1  0  0  0  0  0999 V2000
   -1.4400   -2.6210   -0.1620 C   0  0  0  0  0
    2.1480   -1.8540   -0.3880 C   0  0  0  0  0
    3.6130   -0.1190   -0.7290 C   0  0  0  0  0
    3.9370    2.9460    1.2990 C   0  0  0  0  0
    4.5510    2.0720   -1.2050 C   0  0  0  0  0
   -3.7240   -1.3730    1.1570 C   0  0  0  0  0
   -3.3440   -1.0370   -0.2870 C   0  0  0  0  0
   -4.6020   -0.6640   -1.0720 C   0  0  0  0  0
   -5.1740    0.6180   -0.5250 C   0  0  0  0  0
   -6.0540    1.7750    1.2630 C   0  0  0  0  0
   -6.2120    2.9190    0.4940 C   0  0  0  0  0
   -5.8330    2.8910   -0.8440 C   0  0  0  0  0
   -5.3060    1.7160   -1.3550 C   0  0  0  0  0
   -2.6800   -2.2530   -0.9360 C   0  0  0  0  0
    0.9100   -2.2920    0.3960 C   0  0  0  0  0
    3.4330   -2.2980    0.3460 C   0  0  0  0  0
    4.4190   -1.1300    0.1160 C   0  0  0  0  0
    3.6270    1.6850    0.9290 C   0  0  0  0  0
    4.5770    3.7990    0.3680 C   0  0  0  0  0
    0.8910   -1.5990    1.7340 C   0  0  0  0  0
   -5.5480    0.6770    0.7390 N   0  0  0  0  0
   -0.2960   -1.9340   -0.3560 N   0  0  0  0  0
    3.9390    1.2530   -0.3310 N   0  0  0  0  0
    4.8620    3.3370   -0.8660 N   0  0  0  0  0
   -3.6160   -3.3850   -0.9270 N   0  0  0  0  0
   -6.7340    4.0490    1.0390 O   0  0  0  0  0
   -4.2690   -0.4860   -2.4500 O   0  0  0  0  0
   -1.4720   -3.5300    0.6390 O   0  0  0  0  0
    2.2280   -0.4130   -0.4380 O   0  0  0  0  0
    4.8650    4.9410    0.6790 O   0  0  0  0  0
    4.8270    1.6650   -2.3170 O   0  0  0  0  0
    5.5700   -1.5780   -0.6030 O   0  0  0  0  0
    3.9430   -3.5060   -0.2230 O   0  0  0  0  0
    1.9020   -1.7800    2.5980 O   0  0  0  0  0
   -0.0350   -0.8800    2.0290 O   0  0  0  0  0
    2.1250   -2.2680   -1.3960 H   0  0  0  0  0
    3.8150   -0.2650   -1.7900 H   0  0  0  0  0
    3.6960    3.3000    2.2910 H   0  0  0  0  0
   -4.5180   -2.1190    1.1590 H   0  0  0  0  0
   -2.8530   -1.7680    1.6790 H   0  0  0  0  0
   -4.0720   -0.4710    1.6600 H   0  0  0  0  0
   -2.6490   -0.1970   -0.2930 H   0  0  0  0  0
   -5.3400   -1.4610   -0.9770 H   0  0  0  0  0
   -6.3490    1.7850    2.3020 H   0  0  0  0  0
   -5.9440    3.7650   -1.4690 H   0  0  0  0  0
   -5.0010    1.6580   -2.3890 H   0  0  0  0  0
   -2.4080   -2.0130   -1.9640 H   0  0  0  0  0
    0.9370   -3.3710    0.5460 H   0  0  0  0  0
    3.2390   -2.4300    1.4100 H   0  0  0  0  0
    4.7110   -0.6850    1.0670 H   0  0  0  0  0
    3.1360    1.0200    1.6250 H   0  0  0  0  0
   -0.2710   -1.2040   -0.9940 H   0  0  0  0  0
    5.3040    3.9150   -1.5080 H   0  0  0  0  0
   -3.2240   -4.1810   -1.4070 H   0  0  0  0  0
   -3.8820   -3.6260    0.0160 H   0  0  0  0  0
   -6.0740    4.6420    1.4240 H   0  0  0  0  0
   -3.6160    0.2090   -2.6110 H   0  0  0  0  0
    6.1130   -2.2150   -0.1190 H   0  0  0  0  0
    4.7500   -3.8300    0.2000 H   0  0  0  0  0
    1.8450   -1.3140    3.4440 H   0  0  0  0  0
  1 14  1  0  0  0
  2 15  1  0  0  0
  2 36  1  0  0  0
  3 17  1  0  0  0
  3 29  1  0  0  0
  3 37  1  0  0  0
  4 18  2  0  0  0
  4 38  1  0  0  0
  5 23  1  0  0  0
  6 39  1  0  0  0
  6 40  1  0  0  0
  6 41  1  0  0  0
  7  6  1  0  0  0
  7  8  1  0  0  0
  7 42  1  0  0  0
  8  9  1  0  0  0
  8 43  1  0  0  0
  9 21  1  0  0  0
 10 44  1  0  0  0
 11 10  1  0  0  0
 11 26  1  0  0  0
 12 11  2  0  0  0
 12 45  1  0  0  0
 13  9  2  0  0  0
 13 12  1  0  0  0
 13 46  1  0  0  0
 14 25  1  0  0  0
 14  7  1  0  0  0
 14 47  1  0  0  0
 15 20  1  0  0  0
 15 22  1  0  0  0
 15 48  1  0  0  0
 16  2  1  0  0  0
 16 49  1  0  0  0
 17 16  1  0  0  0
 17 50  1  0  0  0
 18 51  1  0  0  0
 19  4  1  0  0  0
 20 34  1  0  0  0
 21 10  2  0  0  0
 22  1  1  0  0  0
 22 52  1  0  0  0
 23  3  1  0  0  0
 23 18  1  0  0  0
 24  5  1  0  0  0
 24 19  1  0  0  0
 24 53  1  0  0  0
 25 54  1  0  0  0
 25 55  1  0  0  0
 26 56  1  0  0  0
 27  8  1  0  0  0
 27 57  1  0  0  0
 28  1  2  0  0  0
 29  2  1  0  0  0
 30 19  2  0  0  0
 31  5  2  0  0  0
 32 17  1  0  0  0
 32 58  1  0  0  0
 33 16  1  0  0  0
 33 59  1  0  0  0
 34 60  1  0  0  0
 35 20  2  0  0  0
M  END
$$$$
