5 ENGINEERED: YES
     RDKit          3D

 35 37  0  0  0  0  0  0  0  0999 V2000
   21.9360   10.3270   16.0120 C   0  0  0  0  0  0  0  0  0  0  0  0
   20.3610   11.2190   19.1580 C   0  0  2  0  0  0  0  0  0  0  0  0
   18.9230   11.3340   21.0170 C   0  0  2  0  0  0  0  0  0  0  0  0
   16.2450    8.8720   20.3490 C   0  0  0  0  0  0  0  0  0  0  0  0
   16.8760   10.7530   22.1610 C   0  0  0  0  0  0  0  0  0  0  0  0
   21.7040   10.6720   13.0810 C   0  0  0  0  0  0  0  0  0  0  0  0
   22.6230   11.5640   13.9270 C   0  0  2  0  0  0  0  0  0  0  0  0
   23.7840   12.0490   13.0630 C   0  0  1  0  0  0  0  0  0  0  0  0
   23.2660   13.1760   12.1900 C   0  0  0  0  0  0  0  0  0  0  0  0
   21.8740   14.9840   11.9440 C   0  0  0  0  0  0  0  0  0  0  0  0
   22.3180   15.1970   10.6450 C   0  0  0  0  0  0  0  0  0  0  0  0
   23.2730   14.3660   10.0960 C   0  0  0  0  0  0  0  0  0  0  0  0
   23.7510   13.3310   10.9030 C   0  0  0  0  0  0  0  0  0  0  0  0
   23.1370   10.7710   15.1350 C   0  0  2  0  0  0  0  0  0  0  0  0
   20.0930   10.9150   17.6950 C   0  0  1  0  0  0  0  0  0  0  0  0
   20.6280   10.0960   19.8250 C   0  0  2  0  0  0  0  0  0  0  0  0
   20.1690   10.4140   21.2200 C   0  0  1  0  0  0  0  0  0  0  0  0
   17.4140    9.6270   20.2370 C   0  0  0  0  0  0  0  0  0  0  0  0
   15.4130    9.1240   21.4320 C   0  0  0  0  0  0  0  0  0  0  0  0
   18.8800   11.6920   17.2500 C   0  0  0  0  0  0  0  0  0  0  0  0
   22.3560   13.9900   12.6720 N   0  0  0  0  0  0  0  0  0  0  0  0
   21.2410   11.3250   16.8600 N   0  0  0  0  0  0  0  0  0  0  0  0
   17.6970   10.5450   21.1430 N   0  0  0  0  0  0  0  0  0  0  0  0
   15.7520   10.0560   22.3060 N   0  0  0  0  0  0  0  0  0  0  0  0
   23.8930    9.6390   14.7160 N   0  0  0  0  0  0  0  0  0  0  0  0
   21.7870   16.2690    9.8830 O   0  0  0  0  0  0  0  0  0  0  0  0
   24.8200   12.5300   13.8830 O   0  0  0  0  0  0  0  0  0  0  0  0
   21.5840    9.2200   16.0030 O   0  0  0  0  0  0  0  0  0  0  0  0
   19.0340   11.8320   19.8210 O   0  0  0  0  0  0  0  0  0  0  0  0
   14.1990    8.3820   21.6020 O   0  0  0  0  0  0  0  0  0  0  0  0
   17.1490   11.5880   22.9720 O   0  0  0  0  0  0  0  0  0  0  0  0
   21.1400   11.1210   21.8440 O   0  0  0  0  0  0  0  0  0  0  0  0
   22.0980    9.8230   19.8420 O   0  0  0  0  0  0  0  0  0  0  0  0
   17.7360   11.2000   17.3710 O   0  0  0  0  0  0  0  0  0  0  0  0
   19.0210   12.8270   16.7600 O   0  0  0  0  0  0  0  0  0  0  0  0
  1 14  1  0
  1 22  1  0
  1 28  2  0
  2 15  1  0
  2 16  1  0
  2 29  1  1
  3 17  1  0
  3 23  1  6
  3 29  1  0
  4 18  2  0
  4 19  1  0
  5 23  1  0
  5 24  1  0
  5 31  2  0
  7  6  1  6
  7  8  1  0
  7 14  1  0
  8  9  1  0
  8 27  1  1
  9 13  1  0
  9 21  2  0
 10 11  2  0
 10 21  1  0
 11 12  1  0
 11 26  1  0
 12 13  2  0
 14 25  1  6
 15 20  1  0
 15 22  1  6
 16 17  1  0
 16 33  1  1
 17 32  1  1
 18 23  1  0
 19 24  1  0
 19 30  2  0
 20 34  2  0
 20 35  1  0
M  END
$$$$
