
     RDKit          3D

 24 26  0  0  1  0  0  0  0  0999 V2000
   20.7510   14.5040   13.2230 N   0  0  0  0  0  0  0  0  0  0  0  0
   19.4770   14.0060   12.9840 C   0  0  0  0  0  0  0  0  0  0  0  0
   19.1900   12.8570   12.6490 O   0  0  0  0  0  0  0  0  0  0  0  0
   20.7710   15.4840   13.5000 H   0  0  0  0  0  0  0  0  0  0  0  0
   21.9860   13.8530   13.0640 C   0  0  0  0  0  0  0  0  0  0  0  0
   23.9380   13.1640   11.7830 C   0  0  0  0  0  0  0  0  0  0  0  0
   24.4770   12.5690   12.9320 C   0  0  0  0  0  3  0  0  0  0  0  0
   22.6940   13.8100   11.8610 C   0  0  0  0  0  3  0  0  0  0  0  0
   23.7810   12.6010   14.1480 C   0  0  0  0  0  0  0  0  0  0  0  0
   22.5340   13.2410   14.2000 C   0  0  0  0  0  3  0  0  0  0  0  0
   24.7160   13.1720   10.4980 C   0  0  0  0  0  1  0  0  0  0  0  0
   24.3370   11.9060   15.3590 C   0  0  0  0  0  1  0  0  0  0  0  0
   18.3580   15.0640   13.2330 C   0  0  0  0  0  3  0  0  0  0  0  0
   17.7600   15.4780   11.8820 C   0  0  0  0  0  0  0  0  0  0  0  0
   18.6180   15.8180   10.8140 C   0  0  0  0  0  3  0  0  0  0  0  0
   16.3680   15.4730   11.6530 C   0  0  0  0  0  3  0  0  0  0  0  0
   18.0960   16.1670    9.5660 C   0  0  0  0  0  3  0  0  0  0  0  0
   15.8490   15.8290   10.4060 C   0  0  0  0  0  3  0  0  0  0  0  0
   16.7120   16.1760    9.3630 C   0  0  0  0  0  3  0  0  0  0  0  0
   17.3370   14.5440   14.2010 N   0  0  0  0  0  0  0  0  0  0  0  0
   16.6620   15.6430   14.9150 C   0  0  0  0  0  2  0  0  0  0  0  0
   17.9430   13.7630   15.2950 C   0  0  0  0  0  2  0  0  0  0  0  0
   15.9490   14.9130   16.0390 C   0  0  0  0  0  2  0  0  0  0  0  0
   16.8400   13.7160   16.3490 C   0  0  0  0  0  2  0  0  0  0  0  0
  1  4  1  0
  2  1  1  0
  3  2  2  0
  5  1  1  0
  5 10  1  0
  6  8  1  0
  6  7  2  0
  7  9  1  0
  8  5  2  0
  9 10  2  0
  9 12  1  0
 11  6  1  0
 13  2  1  0
 13 20  1  0
 14 13  1  0
 15 14  2  0
 16 14  1  0
 17 15  1  0
 18 16  2  0
 19 17  2  0
 19 18  1  0
 20 21  1  0
 20 22  1  0
 21 23  1  0
 22 24  1  0
 23 24  1  0
M  RAD  8   7   2   8   2  10   2  11   2  12   2  13   2  15   2  16   2
M  RAD  7  17   2  18   2  19   2  21   3  22   3  23   3  24   3
M  END
>  <vina_score>  (1) 
-7.8230000000000004

>  <pose_id>  (1) 
1

$$$$

     RDKit          3D

 24 26  0  0  1  0  0  0  0  0999 V2000
   20.7890   14.4620   13.3350 N   0  0  0  0  0  0  0  0  0  0  0  0
   19.5250   13.9770   13.0230 C   0  0  0  0  0  0  0  0  0  0  0  0
   19.2490   12.8340   12.6580 O   0  0  0  0  0  0  0  0  0  0  0  0
   20.8000   15.4380   13.6250 H   0  0  0  0  0  0  0  0  0  0  0  0
   22.0260   13.8040   13.2330 C   0  0  0  0  0  0  0  0  0  0  0  0
   23.8670   12.4760   14.1120 C   0  0  0  0  0  0  0  0  0  0  0  0
   24.4680   12.4800   12.8450 C   0  0  0  0  0  3  0  0  0  0  0  0
   22.6420   13.1360   14.2940 C   0  0  0  0  0  3  0  0  0  0  0  0
   23.8660   13.1450   11.7700 C   0  0  0  0  0  0  0  0  0  0  0  0
   22.6480   13.8090   11.9770 C   0  0  0  0  0  3  0  0  0  0  0  0
   24.4920   11.7140   15.2450 C   0  0  0  0  0  1  0  0  0  0  0  0
   24.5490   13.1970   10.4320 C   0  0  0  0  0  1  0  0  0  0  0  0
   18.4020   15.0400   13.2260 C   0  0  0  0  0  3  0  0  0  0  0  0
   17.8290   15.4210   11.8540 C   0  0  0  0  0  0  0  0  0  0  0  0
   16.4320   15.4650   11.6690 C   0  0  0  0  0  3  0  0  0  0  0  0
   18.6640   15.7870   10.7770 C   0  0  0  0  0  3  0  0  0  0  0  0
   15.8880   15.8400   10.4380 C   0  0  0  0  0  3  0  0  0  0  0  0
   18.1180   16.1540    9.5450 C   0  0  0  0  0  3  0  0  0  0  0  0
   16.7310   16.1800    9.3750 C   0  0  0  0  0  3  0  0  0  0  0  0
   17.3640   14.5420   14.1870 N   0  0  0  0  0  0  0  0  0  0  0  0
   16.7770   15.6480   14.9680 C   0  0  0  0  0  2  0  0  0  0  0  0
   17.9320   13.6680   15.2300 C   0  0  0  0  0  2  0  0  0  0  0  0
   16.0340   14.9120   16.0680 C   0  0  0  0  0  2  0  0  0  0  0  0
   16.8450   13.6420   16.3010 C   0  0  0  0  0  2  0  0  0  0  0  0
  1  4  1  0
  2  1  1  0
  3  2  2  0
  5  1  1  0
  5  8  2  0
  6  8  1  0
  6 11  1  0
  7  6  2  0
  9 10  2  0
  9  7  1  0
 10  5  1  0
 12  9  1  0
 13  2  1  0
 13 20  1  0
 14 13  1  0
 15 14  2  0
 16 14  1  0
 17 15  1  0
 18 16  2  0
 19 18  1  0
 19 17  2  0
 20 21  1  0
 20 22  1  0
 21 23  1  0
 22 24  1  0
 23 24  1  0
M  RAD  8   7   2   8   2  10   2  11   2  12   2  13   2  15   2  16   2
M  RAD  7  17   2  18   2  19   2  21   3  22   3  23   3  24   3
M  END
>  <vina_score>  (2) 
-7.7859999999999996

>  <pose_id>  (2) 
2

$$$$

     RDKit          3D

 24 26  0  0  1  0  0  0  0  0999 V2000
   20.3610   13.5120   12.8450 N   0  0  0  0  0  0  0  0  0  0  0  0
   19.6480   14.5280   13.4690 C   0  0  0  0  0  0  0  0  0  0  0  0
   20.1050   15.3860   14.2230 O   0  0  0  0  0  0  0  0  0  0  0  0
   19.7940   12.9090   12.2510 H   0  0  0  0  0  0  0  0  0  0  0  0
   21.7190   13.1840   12.9890 C   0  0  0  0  0  0  0  0  0  0  0  0
   23.6550   12.4150   14.2490 C   0  0  0  0  0  0  0  0  0  0  0  0
   24.4380   12.4990   13.0890 C   0  0  0  0  0  3  0  0  0  0  0  0
   22.2940   12.7530   14.1870 C   0  0  0  0  0  3  0  0  0  0  0  0
   23.8790   12.9300   11.8790 C   0  0  0  0  0  0  0  0  0  0  0  0
   22.5210   13.2750   11.8420 C   0  0  0  0  0  3  0  0  0  0  0  0
   24.2490   11.9000   15.5280 C   0  0  0  0  0  1  0  0  0  0  0  0
   24.7410   13.0780   10.6560 C   0  0  0  0  0  1  0  0  0  0  0  0
   18.1370   14.5320   13.0810 C   0  0  0  0  0  3  0  0  0  0  0  0
   17.3040   14.7660   14.3490 C   0  0  0  0  0  0  0  0  0  0  0  0
   16.8280   16.0610   14.6430 C   0  0  0  0  0  3  0  0  0  0  0  0
   16.9470   13.7050   15.2090 C   0  0  0  0  0  3  0  0  0  0  0  0
   16.0410   16.2900   15.7740 C   0  0  0  0  0  3  0  0  0  0  0  0
   16.1660   13.9390   16.3430 C   0  0  0  0  0  3  0  0  0  0  0  0
   15.7140   15.2300   16.6260 C   0  0  0  0  0  3  0  0  0  0  0  0
   17.8670   15.5340   11.9990 N   0  0  0  0  0  0  0  0  0  0  0  0
   16.5550   15.3030   11.3660 C   0  0  0  0  0  2  0  0  0  0  0  0
   18.8050   15.4110   10.8680 C   0  0  0  0  0  2  0  0  0  0  0  0
   16.6330   16.1750   10.1260 C   0  0  0  0  0  2  0  0  0  0  0  0
   18.1090   16.1770    9.7460 C   0  0  0  0  0  2  0  0  0  0  0  0
  1  5  1  0
  1  2  1  0
  2  3  2  0
  4  1  1  0
  5  8  2  0
  6 11  1  0
  7  6  2  0
  8  6  1  0
  9  7  1  0
 10  9  2  0
 10  5  1  0
 12  9  1  0
 13  2  1  0
 13 14  1  0
 14 15  2  0
 14 16  1  0
 15 17  1  0
 16 18  2  0
 17 19  2  0
 18 19  1  0
 20 13  1  0
 21 20  1  0
 22 20  1  0
 23 21  1  0
 24 23  1  0
 24 22  1  0
M  RAD  8   7   2   8   2  10   2  11   2  12   2  13   2  15   2  16   2
M  RAD  7  17   2  18   2  19   2  21   3  22   3  23   3  24   3
M  END
>  <vina_score>  (3) 
-7.1269999999999998

>  <pose_id>  (3) 
3

$$$$

     RDKit          3D

 24 26  0  0  1  0  0  0  0  0999 V2000
   20.1860   13.1710   12.8390 N   0  0  0  0  0  0  0  0  0  0  0  0
   19.4660   14.2240   13.3900 C   0  0  0  0  0  0  0  0  0  0  0  0
   19.9290   15.1890   13.9970 O   0  0  0  0  0  0  0  0  0  0  0  0
   19.6110   12.4740   12.3680 H   0  0  0  0  0  0  0  0  0  0  0  0
   21.5670   12.9260   12.9130 C   0  0  0  0  0  0  0  0  0  0  0  0
   23.8250   12.8820   12.0050 C   0  0  0  0  0  0  0  0  0  0  0  0
   24.3120   12.4530   13.2470 C   0  0  0  0  0  3  0  0  0  0  0  0
   22.4500   13.1220   11.8490 C   0  0  0  0  0  3  0  0  0  0  0  0
   23.4400   12.2490   14.3250 C   0  0  0  0  0  0  0  0  0  0  0  0
   22.0700   12.4830   14.1450 C   0  0  0  0  0  3  0  0  0  0  0  0
   24.7730   13.1510   10.8710 C   0  0  0  0  0  1  0  0  0  0  0  0
   23.9630   11.7270   15.6350 C   0  0  0  0  0  1  0  0  0  0  0  0
   17.9320   14.1110   13.1250 C   0  0  0  0  0  3  0  0  0  0  0  0
   17.2050   14.0230   14.4730 C   0  0  0  0  0  0  0  0  0  0  0  0
   16.7280   15.2010   15.0870 C   0  0  0  0  0  3  0  0  0  0  0  0
   16.9440   12.7850   15.0980 C   0  0  0  0  0  3  0  0  0  0  0  0
   16.0350   15.1410   16.2980 C   0  0  0  0  0  3  0  0  0  0  0  0
   16.2570   12.7300   16.3120 C   0  0  0  0  0  3  0  0  0  0  0  0
   15.8040   13.9060   16.9130 C   0  0  0  0  0  3  0  0  0  0  0  0
   17.4550   15.2420   12.2640 N   0  0  0  0  0  0  0  0  0  0  0  0
   16.1070   14.9800   11.7280 C   0  0  0  0  0  2  0  0  0  0  0  0
   18.2680   15.4060   11.0450 C   0  0  0  0  0  2  0  0  0  0  0  0
   15.9680   16.0460   10.6560 C   0  0  0  0  0  2  0  0  0  0  0  0
   17.3870   16.2670   10.1440 C   0  0  0  0  0  2  0  0  0  0  0  0
  1  5  1  0
  1  2  1  0
  2  3  2  0
  4  1  1  0
  5 10  1  0
  6  7  2  0
  7  9  1  0
  8  6  1  0
  8  5  2  0
  9 12  1  0
 10  9  2  0
 11  6  1  0
 13  2  1  0
 13 14  1  0
 14 15  2  0
 14 16  1  0
 15 17  1  0
 16 18  2  0
 17 19  2  0
 18 19  1  0
 20 13  1  0
 21 20  1  0
 22 20  1  0
 23 21  1  0
 24 23  1  0
 24 22  1  0
M  RAD  8   7   2   8   2  10   2  11   2  12   2  13   2  15   2  16   2
M  RAD  7  17   2  18   2  19   2  21   3  22   3  23   3  24   3
M  END
>  <vina_score>  (4) 
-6.9550000000000001

>  <pose_id>  (4) 
4

$$$$

     RDKit          3D

 24 26  0  0  1  0  0  0  0  0999 V2000
   18.1170   12.1190   17.5070 N   0  0  0  0  0  0  0  0  0  0  0  0
   17.4060   11.1550   18.2100 C   0  0  0  0  0  0  0  0  0  0  0  0
   16.2260   10.8470   18.0410 O   0  0  0  0  0  0  0  0  0  0  0  0
   19.0890   12.2150   17.7970 H   0  0  0  0  0  0  0  0  0  0  0  0
   17.6490   13.0020   16.5190 C   0  0  0  0  0  0  0  0  0  0  0  0
   16.1370   14.7020   15.6550 C   0  0  0  0  0  0  0  0  0  0  0  0
   16.8860   14.7610   14.4710 C   0  0  0  0  0  3  0  0  0  0  0  0
   16.5300   13.8230   16.6760 C   0  0  0  0  0  3  0  0  0  0  0  0
   18.0100   13.9430   14.2960 C   0  0  0  0  0  0  0  0  0  0  0  0
   18.3790   13.0640   15.3230 C   0  0  0  0  0  3  0  0  0  0  0  0
   14.9670   15.6220   15.8560 C   0  0  0  0  0  1  0  0  0  0  0  0
   18.7700   13.9680   12.9990 C   0  0  0  0  0  1  0  0  0  0  0  0
   18.2790   10.4110   19.2660 C   0  0  0  0  0  3  0  0  0  0  0  0
   17.8060   10.8130   20.6700 C   0  0  0  0  0  0  0  0  0  0  0  0
   18.6200   11.6430   21.4690 C   0  0  0  0  0  3  0  0  0  0  0  0
   16.5450   10.4230   21.1680 C   0  0  0  0  0  3  0  0  0  0  0  0
   18.1960   12.0470   22.7370 C   0  0  0  0  0  3  0  0  0  0  0  0
   16.1270   10.8240   22.4390 C   0  0  0  0  0  3  0  0  0  0  0  0
   16.9510   11.6340   23.2240 C   0  0  0  0  0  3  0  0  0  0  0  0
   18.2530    8.9300   19.0320 N   0  0  0  0  0  0  0  0  0  0  0  0
   19.0200    8.2070   20.0630 C   0  0  0  0  0  2  0  0  0  0  0  0
   18.9350    8.5430   17.7820 C   0  0  0  0  0  2  0  0  0  0  0  0
   19.1430    6.8170   19.4640 C   0  0  0  0  0  2  0  0  0  0  0  0
   19.1720    7.0460   17.9570 C   0  0  0  0  0  2  0  0  0  0  0  0
  1  4  1  0
  1  2  1  0
  3  2  2  0
  5  8  2  0
  5  1  1  0
  6 11  1  0
  6  8  1  0
  7  6  2  0
  9  7  1  0
  9 10  2  0
 10  5  1  0
 12  9  1  0
 13  2  1  0
 13 14  1  0
 14 16  1  0
 14 15  2  0
 15 17  1  0
 16 18  2  0
 17 19  2  0
 18 19  1  0
 20 13  1  0
 20 21  1  0
 22 24  1  0
 22 20  1  0
 23 21  1  0
 24 23  1  0
M  RAD  8   7   2   8   2  10   2  11   2  12   2  13   2  15   2  16   2
M  RAD  7  17   2  18   2  19   2  21   3  22   3  23   3  24   3
M  END
>  <vina_score>  (5) 
-6.8869999999999996

>  <pose_id>  (5) 
5

$$$$
