
     RDKit          3D

 24 26  0  0  1  0  0  0  0  0999 V2000
   20.5700   12.6340   14.5650 C   0  0  0  0  0  2  0  0  0  0  0  0
   19.7540   12.9720   13.3070 C   0  0  0  0  0  0  0  0  0  0  0  0
   19.1940   12.0950   12.6560 O   0  0  0  0  0  0  0  0  0  0  0  0
   19.8280   14.3200   12.9920 N   0  0  0  0  0  0  0  0  0  0  0  0
   20.3930   14.8560   13.6570 H   0  0  0  0  0  0  0  0  0  0  0  0
   19.2150   15.0170   11.9280 C   0  0  0  0  0  0  0  0  0  0  0  0
   19.9800   15.4440   10.8330 C   0  0  0  0  0  3  0  0  0  0  0  0
   17.8090   15.1820   11.8730 C   0  0  0  0  0  0  0  0  0  0  0  0
   19.3770   15.9650    9.6850 C   0  0  0  0  0  3  0  0  0  0  0  0
   17.2160   15.6820   10.6960 C   0  0  0  0  0  3  0  0  0  0  0  0
   18.0000   16.0660    9.6080 C   0  0  0  0  0  3  0  0  0  0  0  0
   16.9490   14.9570   12.9990 N   0  0  0  0  0  0  0  0  0  0  0  0
   16.1460   13.8480   13.2060 C   0  0  0  0  0  3  0  0  0  0  0  0
   16.6800   15.8380   14.0350 C   0  0  0  0  0  3  0  0  0  0  0  0
   15.4190   14.0200   14.3640 C   0  0  0  0  0  3  0  0  0  0  0  0
   15.7580   15.2800   14.8900 C   0  0  0  0  0  3  0  0  0  0  0  0
   21.8530   13.3670   14.5540 N   0  0  0  0  0  0  0  0  0  0  0  0
   21.9550   13.8380   15.4610 H   0  0  0  0  0  0  0  0  0  0  0  0
   23.0020   12.4720   14.3410 C   0  0  0  0  0  2  0  0  0  0  0  0
   23.9770   12.8660   13.2130 C   0  0  0  0  0  3  0  0  0  0  0  0
   23.2740   13.6430   12.1010 C   0  0  0  0  0  2  0  0  0  0  0  0
   24.5390   11.6910   12.5940 O   0  0  0  0  0  0  0  0  0  0  0  0
   24.0890   13.2620   10.8850 C   0  0  0  0  0  2  0  0  0  0  0  0
   24.4050   11.8080   11.1700 C   0  0  0  0  0  2  0  0  0  0  0  0
  2  1  1  0
  3  2  2  0
  4  2  1  0
  4  5  1  0
  6  4  1  0
  7  6  2  0
  8  6  1  0
  8 12  1  0
  9  7  1  0
 10  8  2  0
 11  9  2  0
 11 10  1  0
 12 13  1  0
 12 14  1  0
 13 15  2  0
 14 16  2  0
 15 16  1  0
 17  1  1  0
 17 18  1  0
 19 17  1  0
 20 19  1  0
 21 20  1  0
 22 20  1  0
 23 24  1  0
 23 21  1  0
 24 22  1  0
M  RAD  8   1   3   7   2   9   2  10   2  11   2  13   2  14   2  15   2
M  RAD  6  16   2  19   3  20   2  21   3  23   3  24   3
M  END
>  <vina_score>  (1) 
-6.7599999999999998

>  <pose_id>  (1) 
1

$$$$

     RDKit          3D

 24 26  0  0  1  0  0  0  0  0999 V2000
   21.1290    9.8530   17.1400 C   0  0  0  0  0  2  0  0  0  0  0  0
   21.5290   10.2000   15.6960 C   0  0  0  0  0  0  0  0  0  0  0  0
   21.4370    9.3740   14.7930 O   0  0  0  0  0  0  0  0  0  0  0  0
   22.0660   11.4750   15.6030 N   0  0  0  0  0  0  0  0  0  0  0  0
   22.0850   11.9680   16.5020 H   0  0  0  0  0  0  0  0  0  0  0  0
   22.5370   12.1580   14.4610 C   0  0  0  0  0  0  0  0  0  0  0  0
   21.6590   12.9390   13.6970 C   0  0  0  0  0  3  0  0  0  0  0  0
   23.9170   12.1840   14.1390 C   0  0  0  0  0  0  0  0  0  0  0  0
   22.1270   13.7740   12.6780 C   0  0  0  0  0  3  0  0  0  0  0  0
   24.3750   13.0530   13.1280 C   0  0  0  0  0  3  0  0  0  0  0  0
   23.4820   13.8460   12.4070 C   0  0  0  0  0  3  0  0  0  0  0  0
   24.8750   11.2930   14.7250 N   0  0  0  0  0  0  0  0  0  0  0  0
   25.8710   11.6380   15.6240 C   0  0  0  0  0  3  0  0  0  0  0  0
   25.0550    9.9490   14.4330 C   0  0  0  0  0  3  0  0  0  0  0  0
   26.6320   10.5260   15.9110 C   0  0  0  0  0  3  0  0  0  0  0  0
   26.1140    9.4560   15.1580 C   0  0  0  0  0  3  0  0  0  0  0  0
   21.4020   10.9980   18.0340 N   0  0  0  0  0  0  0  0  0  0  0  0
   20.5430   11.5580   18.0980 H   0  0  0  0  0  0  0  0  0  0  0  0
   21.7980   10.5660   19.3840 C   0  0  0  0  0  2  0  0  0  0  0  0
   21.1270   11.2990   20.5620 C   0  0  0  0  0  3  0  0  0  0  0  0
   20.4780   10.3240   21.5440 C   0  0  0  0  0  2  0  0  0  0  0  0
   20.0720   12.1610   20.0900 O   0  0  0  0  0  0  0  0  0  0  0  0
   19.3300   11.1420   22.0900 C   0  0  0  0  0  2  0  0  0  0  0  0
   18.8890   11.9120   20.8620 C   0  0  0  0  0  2  0  0  0  0  0  0
  1 17  1  0
  2  1  1  0
  3  2  2  0
  4  2  1  0
  4  5  1  0
  6  4  1  0
  7  6  2  0
  8  6  1  0
  8 12  1  0
  9  7  1  0
 10  8  2  0
 11  9  2  0
 11 10  1  0
 12 13  1  0
 13 15  2  0
 14 12  1  0
 14 16  2  0
 16 15  1  0
 17 18  1  0
 17 19  1  0
 20 19  1  0
 20 21  1  0
 21 23  1  0
 22 20  1  0
 22 24  1  0
 24 23  1  0
M  RAD  8   1   3   7   2   9   2  10   2  11   2  13   2  14   2  15   2
M  RAD  6  16   2  19   3  20   2  21   3  23   3  24   3
M  END
>  <vina_score>  (2) 
-6.2999999999999998

>  <pose_id>  (2) 
2

$$$$

     RDKit          3D

 24 26  0  0  1  0  0  0  0  0999 V2000
   19.3420   13.2110   14.6680 C   0  0  0  0  0  2  0  0  0  0  0  0
   20.0680   14.3450   13.9270 C   0  0  0  0  0  0  0  0  0  0  0  0
   20.5540   15.2940   14.5350 O   0  0  0  0  0  0  0  0  0  0  0  0
   20.0020   14.1860   12.5510 N   0  0  0  0  0  0  0  0  0  0  0  0
   19.5030   13.3370   12.2700 H   0  0  0  0  0  0  0  0  0  0  0  0
   20.5490   15.0020   11.5370 C   0  0  0  0  0  0  0  0  0  0  0  0
   21.9390   15.1510   11.4270 C   0  0  0  0  0  3  0  0  0  0  0  0
   19.7280   15.5740   10.5330 C   0  0  0  0  0  0  0  0  0  0  0  0
   22.5160   15.7930   10.3270 C   0  0  0  0  0  3  0  0  0  0  0  0
   20.3280   16.1920    9.4180 C   0  0  0  0  0  3  0  0  0  0  0  0
   21.7160   16.2950    9.3170 C   0  0  0  0  0  3  0  0  0  0  0  0
   18.3000   15.6460   10.6360 N   0  0  0  0  0  0  0  0  0  0  0  0
   17.4300   16.1050    9.6610 C   0  0  0  0  0  3  0  0  0  0  0  0
   17.5270   15.3690   11.7550 C   0  0  0  0  0  3  0  0  0  0  0  0
   16.1420   16.0820   10.1500 C   0  0  0  0  0  3  0  0  0  0  0  0
   16.2030   15.6150   11.4760 C   0  0  0  0  0  3  0  0  0  0  0  0
   18.8550   13.6870   15.9800 N   0  0  0  0  0  0  0  0  0  0  0  0
   18.8550   14.7140   15.9610 H   0  0  0  0  0  0  0  0  0  0  0  0
   17.4960   13.2070   16.2760 C   0  0  0  0  0  2  0  0  0  0  0  0
   16.3890   14.2790   16.3300 C   0  0  0  0  0  3  0  0  0  0  0  0
   15.5340   14.2790   15.0640 C   0  0  0  0  0  2  0  0  0  0  0  0
   16.9630   15.5980   16.4320 O   0  0  0  0  0  0  0  0  0  0  0  0
   15.1120   15.7270   14.9660 C   0  0  0  0  0  2  0  0  0  0  0  0
   16.3590   16.4440   15.4420 C   0  0  0  0  0  2  0  0  0  0  0  0
  1 17  1  0
  2  3  2  0
  2  1  1  0
  4  2  1  0
  5  4  1  0
  6  4  1  0
  7  6  2  0
  8 12  1  0
  8  6  1  0
  9  7  1  0
 10  8  2  0
 11 10  1  0
 11  9  2  0
 12 14  1  0
 13 15  2  0
 13 12  1  0
 15 16  1  0
 16 14  2  0
 17 19  1  0
 18 17  1  0
 20 19  1  0
 20 22  1  0
 21 20  1  0
 23 21  1  0
 23 24  1  0
 24 22  1  0
M  RAD  8   1   3   7   2   9   2  10   2  11   2  13   2  14   2  15   2
M  RAD  6  16   2  19   3  20   2  21   3  23   3  24   3
M  END
>  <vina_score>  (3) 
-6.2629999999999999

>  <pose_id>  (3) 
3

$$$$

     RDKit          3D

 24 26  0  0  1  0  0  0  0  0999 V2000
   19.0530   12.6630   15.3510 C   0  0  0  0  0  2  0  0  0  0  0  0
   19.2740   12.8650   13.8420 C   0  0  0  0  0  0  0  0  0  0  0  0
   18.7110   12.1530   13.0160 O   0  0  0  0  0  0  0  0  0  0  0  0
   20.2200   13.8450   13.5870 N   0  0  0  0  0  0  0  0  0  0  0  0
   20.5900   14.2750   14.4400 H   0  0  0  0  0  0  0  0  0  0  0  0
   20.6870   14.3250   12.3440 C   0  0  0  0  0  0  0  0  0  0  0  0
   19.8780   15.1640   11.5650 C   0  0  0  0  0  3  0  0  0  0  0  0
   22.0180   14.0860   11.9180 C   0  0  0  0  0  0  0  0  0  0  0  0
   20.3790   15.8050   10.4280 C   0  0  0  0  0  3  0  0  0  0  0  0
   22.5140   14.7630   10.7870 C   0  0  0  0  0  3  0  0  0  0  0  0
   21.6960   15.6210   10.0500 C   0  0  0  0  0  3  0  0  0  0  0  0
   22.8710   13.1080   12.5270 N   0  0  0  0  0  0  0  0  0  0  0  0
   23.7940   13.3380   13.5330 C   0  0  0  0  0  3  0  0  0  0  0  0
   23.0100   11.7770   12.1620 C   0  0  0  0  0  3  0  0  0  0  0  0
   24.4680   12.1700   13.8120 C   0  0  0  0  0  3  0  0  0  0  0  0
   23.9710   11.1800   12.9450 C   0  0  0  0  0  3  0  0  0  0  0  0
   18.2390   13.7680   15.9000 N   0  0  0  0  0  0  0  0  0  0  0  0
   18.3400   14.5750   15.2720 H   0  0  0  0  0  0  0  0  0  0  0  0
   16.8150   13.4090   16.0040 C   0  0  0  0  0  2  0  0  0  0  0  0
   15.8720   14.0440   14.9610 C   0  0  0  0  0  3  0  0  0  0  0  0
   15.3720   13.0160   13.9470 C   0  0  0  0  0  2  0  0  0  0  0  0
   16.5610   15.0600   14.2040 O   0  0  0  0  0  0  0  0  0  0  0  0
   15.1720   13.8630   12.7110 C   0  0  0  0  0  2  0  0  0  0  0  0
   16.3360   14.8270   12.8060 C   0  0  0  0  0  2  0  0  0  0  0  0
  1 17  1  0
  2  1  1  0
  3  2  2  0
  4  2  1  0
  4  5  1  0
  6  4  1  0
  7  6  2  0
  8  6  1  0
  8 12  1  0
  9  7  1  0
 10  8  2  0
 11  9  2  0
 11 10  1  0
 12 13  1  0
 13 15  2  0
 14 12  1  0
 14 16  2  0
 16 15  1  0
 17 19  1  0
 18 17  1  0
 20 19  1  0
 21 20  1  0
 22 20  1  0
 23 24  1  0
 23 21  1  0
 24 22  1  0
M  RAD  8   1   3   7   2   9   2  10   2  11   2  13   2  14   2  15   2
M  RAD  6  16   2  19   3  20   2  21   3  23   3  24   3
M  END
>  <vina_score>  (4) 
-6.1689999999999996

>  <pose_id>  (4) 
4

$$$$

     RDKit          3D

 24 26  0  0  1  0  0  0  0  0999 V2000
   19.6370   12.0450   15.3570 C   0  0  0  0  0  2  0  0  0  0  0  0
   19.3660   12.4860   13.9090 C   0  0  0  0  0  0  0  0  0  0  0  0
   19.0570   11.6720   13.0430 O   0  0  0  0  0  0  0  0  0  0  0  0
   19.6070   13.8390   13.7290 N   0  0  0  0  0  0  0  0  0  0  0  0
   19.9020   14.3110   14.5890 H   0  0  0  0  0  0  0  0  0  0  0  0
   19.4660   14.6170   12.5590 C   0  0  0  0  0  0  0  0  0  0  0  0
   20.5850   14.9020   11.7650 C   0  0  0  0  0  3  0  0  0  0  0  0
   18.1880   15.0090   12.0890 C   0  0  0  0  0  0  0  0  0  0  0  0
   20.4520   15.5040   10.5100 C   0  0  0  0  0  3  0  0  0  0  0  0
   18.0690   15.5880   10.8100 C   0  0  0  0  0  3  0  0  0  0  0  0
   19.1980   15.8280   10.0250 C   0  0  0  0  0  3  0  0  0  0  0  0
   17.0020   14.9380   12.8920 N   0  0  0  0  0  0  0  0  0  0  0  0
   16.6270   15.8330   13.8790 C   0  0  0  0  0  3  0  0  0  0  0  0
   16.0630   13.9170   12.9080 C   0  0  0  0  0  3  0  0  0  0  0  0
   15.4620   15.3980   14.4730 C   0  0  0  0  0  3  0  0  0  0  0  0
   15.1040   14.1840   13.8570 C   0  0  0  0  0  3  0  0  0  0  0  0
   19.1180   13.0550   16.3030 N   0  0  0  0  0  0  0  0  0  0  0  0
   18.7570   13.8450   15.7540 H   0  0  0  0  0  0  0  0  0  0  0  0
   18.0400   12.5210   17.1500 C   0  0  0  0  0  2  0  0  0  0  0  0
   18.4660   11.5490   18.2690 C   0  0  0  0  0  3  0  0  0  0  0  0
   17.3220   11.2650   19.2410 C   0  0  0  0  0  2  0  0  0  0  0  0
   19.5350   12.1150   19.0540 O   0  0  0  0  0  0  0  0  0  0  0  0
   18.0620   11.0040   20.5330 C   0  0  0  0  0  2  0  0  0  0  0  0
   19.1980   12.0030   20.4440 C   0  0  0  0  0  2  0  0  0  0  0  0
  1 17  1  0
  2  1  1  0
  3  2  2  0
  4  2  1  0
  4  5  1  0
  6  4  1  0
  7  6  2  0
  8  6  1  0
  8 12  1  0
  9  7  1  0
 10  8  2  0
 11  9  2  0
 11 10  1  0
 12 14  1  0
 12 13  1  0
 13 15  2  0
 14 16  2  0
 16 15  1  0
 17 19  1  0
 18 17  1  0
 20 19  1  0
 20 22  1  0
 20 21  1  0
 21 23  1  0
 22 24  1  0
 24 23  1  0
M  RAD  8   1   3   7   2   9   2  10   2  11   2  13   2  14   2  15   2
M  RAD  6  16   2  19   3  20   2  21   3  23   3  24   3
M  END
>  <vina_score>  (5) 
-6.1639999999999997

>  <pose_id>  (5) 
5

$$$$
