
     RDKit          3D

 24 26  0  0  0  0  0  0  0  0999 V2000
   20.8250   15.7410    9.5300 O   0  0  0  0  0  0  0  0  0  0  0  0
   20.7030   15.6640   10.7500 C   0  0  0  0  0  0  0  0  0  0  0  0
   19.5250   15.7080   11.4610 N   0  0  0  0  0  0  0  0  0  0  0  0
   19.5460   15.5690   12.4690 H   0  0  0  0  0  0  0  0  0  0  0  0
   21.9220   15.5250   11.6490 C   0  0  0  0  0  2  0  0  0  0  0  0
   22.6240   14.1940   11.4930 C   0  0  0  0  0  0  0  0  0  0  0  0
   23.6550   14.0330   10.5580 C   0  0  0  0  0  3  0  0  0  0  0  0
   22.2620   13.1090   12.3050 C   0  0  0  0  0  3  0  0  0  0  0  0
   24.3120   12.8060   10.4380 C   0  0  0  0  0  3  0  0  0  0  0  0
   22.9170   11.8780   12.1840 C   0  0  0  0  0  0  0  0  0  0  0  0
   23.9460   11.7270   11.2480 C   0  0  0  0  0  0  0  0  0  0  0  0
   22.4080   10.5900   13.2180 Cl  0  0  0  0  0  0  0  0  0  0  0  0
   24.8050   10.2410   11.0430 Cl  0  0  0  0  0  0  0  0  0  0  0  0
   18.2050   15.8210   10.9870 C   0  0  0  0  0  0  0  0  0  0  0  0
   17.8610   16.3140    9.7290 C   0  0  0  0  0  3  0  0  0  0  0  0
   17.2010   15.3860   11.8860 C   0  0  0  0  0  0  0  0  0  0  0  0
   16.5190   16.3760    9.3500 C   0  0  0  0  0  3  0  0  0  0  0  0
   15.8590   15.4560   11.4860 C   0  0  0  0  0  3  0  0  0  0  0  0
   15.5200   15.9480   10.2240 C   0  0  0  0  0  3  0  0  0  0  0  0
   17.6020   14.9080   13.1600 N   0  0  0  0  0  0  0  0  0  0  0  0
   17.1540   15.7880   14.2600 C   0  0  0  0  0  2  0  0  0  0  0  0
   17.1920   13.5190   13.4590 C   0  0  0  0  0  2  0  0  0  0  0  0
   16.9590   14.8350   15.4320 C   0  0  0  0  0  2  0  0  0  0  0  0
   16.3820   13.6080   14.7500 C   0  0  0  0  0  2  0  0  0  0  0  0
  1  2  2  0
  2  3  1  0
  2  5  1  0
  3  4  1  0
  6  5  1  0
  6  8  2  0
  7  6  1  0
  9  7  2  0
  9 11  1  0
 10  8  1  0
 10 12  1  0
 11 10  2  0
 13 11  1  0
 14  3  1  0
 14 16  1  0
 15 14  2  0
 16 20  1  0
 17 15  1  0
 17 19  2  0
 18 16  2  0
 19 18  1  0
 20 22  1  0
 20 21  1  0
 21 23  1  0
 22 24  1  0
 24 23  1  0
M  RAD  8   5   3   7   2   8   2   9   2  15   2  17   2  18   2  19   2
M  RAD  4  21   3  22   3  23   3  24   3
M  END
>  <vina_score>  (1) 
-7.601

>  <pose_id>  (1) 
1

$$$$

     RDKit          3D

 24 26  0  0  0  0  0  0  0  0999 V2000
   22.5320   15.9460   12.6590 O   0  0  0  0  0  0  0  0  0  0  0  0
   22.3590   15.0610   11.8260 C   0  0  0  0  0  0  0  0  0  0  0  0
   22.6340   13.7210   11.9830 N   0  0  0  0  0  0  0  0  0  0  0  0
   22.3860   13.0710   11.2390 H   0  0  0  0  0  0  0  0  0  0  0  0
   21.8060   15.3850   10.4470 C   0  0  0  0  0  2  0  0  0  0  0  0
   20.3040   15.5610   10.4360 C   0  0  0  0  0  0  0  0  0  0  0  0
   19.6540   16.1070    9.3210 C   0  0  0  0  0  3  0  0  0  0  0  0
   19.5400   15.1560   11.5410 C   0  0  0  0  0  3  0  0  0  0  0  0
   18.2640   16.2440    9.3130 C   0  0  0  0  0  3  0  0  0  0  0  0
   18.1480   15.2960   11.5360 C   0  0  0  0  0  0  0  0  0  0  0  0
   17.5070   15.8410   10.4180 C   0  0  0  0  0  0  0  0  0  0  0  0
   17.2810   14.7770   12.9390 Cl  0  0  0  0  0  0  0  0  0  0  0  0
   15.7930   16.0410   10.3340 Cl  0  0  0  0  0  0  0  0  0  0  0  0
   23.1430   13.0450   13.1070 C   0  0  0  0  0  0  0  0  0  0  0  0
   24.4940   12.9920   13.4480 C   0  0  0  0  0  3  0  0  0  0  0  0
   22.1740   12.3990   13.9130 C   0  0  0  0  0  0  0  0  0  0  0  0
   24.8950   12.3020   14.5940 C   0  0  0  0  0  3  0  0  0  0  0  0
   22.5970   11.7110   15.0580 C   0  0  0  0  0  3  0  0  0  0  0  0
   23.9510   11.6630   15.3970 C   0  0  0  0  0  3  0  0  0  0  0  0
   20.8140   12.4690   13.5130 N   0  0  0  0  0  0  0  0  0  0  0  0
   20.2810   11.1560   13.0920 C   0  0  0  0  0  2  0  0  0  0  0  0
   19.9020   13.0570   14.5170 C   0  0  0  0  0  2  0  0  0  0  0  0
   18.8030   11.2310   13.4520 C   0  0  0  0  0  2  0  0  0  0  0  0
   18.8350   11.9940   14.7640 C   0  0  0  0  0  2  0  0  0  0  0  0
  2  3  1  0
  2  1  2  0
  3 14  1  0
  4  3  1  0
  5  2  1  0
  6  5  1  0
  6  8  2  0
  7  6  1  0
  9  7  2  0
  9 11  1  0
 10  8  1  0
 10 12  1  0
 11 10  2  0
 13 11  1  0
 14 15  2  0
 14 16  1  0
 15 17  1  0
 16 18  2  0
 17 19  2  0
 18 19  1  0
 20 16  1  0
 20 22  1  0
 21 23  1  0
 21 20  1  0
 22 24  1  0
 23 24  1  0
M  RAD  8   5   3   7   2   8   2   9   2  15   2  17   2  18   2  19   2
M  RAD  4  21   3  22   3  23   3  24   3
M  END
>  <vina_score>  (2) 
-7.492

>  <pose_id>  (2) 
2

$$$$

     RDKit          3D

 24 26  0  0  0  0  0  0  0  0999 V2000
   23.1720   12.6910   11.2230 O   0  0  0  0  0  0  0  0  0  0  0  0
   23.3250   13.5990   12.0360 C   0  0  0  0  0  0  0  0  0  0  0  0
   22.5640   14.7410   12.1420 N   0  0  0  0  0  0  0  0  0  0  0  0
   22.7480   15.3930   12.9010 H   0  0  0  0  0  0  0  0  0  0  0  0
   24.4530   13.5520   13.0550 C   0  0  0  0  0  2  0  0  0  0  0  0
   24.1780   12.6070   14.2020 C   0  0  0  0  0  0  0  0  0  0  0  0
   25.2090   12.2020   15.0600 C   0  0  0  0  0  3  0  0  0  0  0  0
   22.8750   12.1410   14.4330 C   0  0  0  0  0  3  0  0  0  0  0  0
   24.9410   11.3450   16.1300 C   0  0  0  0  0  3  0  0  0  0  0  0
   22.6040   11.2810   15.5030 C   0  0  0  0  0  0  0  0  0  0  0  0
   23.6400   10.8820   16.3550 C   0  0  0  0  0  0  0  0  0  0  0  0
   20.9740   10.7480   15.7160 Cl  0  0  0  0  0  0  0  0  0  0  0  0
   23.3850    9.8270   17.6990 Cl  0  0  0  0  0  0  0  0  0  0  0  0
   21.4410   15.1330   11.3900 C   0  0  0  0  0  0  0  0  0  0  0  0
   21.5080   15.7820   10.1580 C   0  0  0  0  0  3  0  0  0  0  0  0
   20.1870   14.8170   11.9670 C   0  0  0  0  0  0  0  0  0  0  0  0
   20.3320   16.1200    9.4860 C   0  0  0  0  0  3  0  0  0  0  0  0
   19.0180   15.1650   11.2770 C   0  0  0  0  0  3  0  0  0  0  0  0
   19.0910   15.8120   10.0410 C   0  0  0  0  0  3  0  0  0  0  0  0
   20.1730   14.1710   13.2310 N   0  0  0  0  0  0  0  0  0  0  0  0
   19.5780   15.0140   14.2890 C   0  0  0  0  0  2  0  0  0  0  0  0
   19.5140   12.8480   13.2430 C   0  0  0  0  0  2  0  0  0  0  0  0
   18.9560   14.0070   15.2480 C   0  0  0  0  0  2  0  0  0  0  0  0
   18.4150   12.9550   14.2970 C   0  0  0  0  0  2  0  0  0  0  0  0
  1  2  2  0
  2  3  1  0
  2  5  1  0
  3  4  1  0
  5  6  1  0
  6  8  2  0
  6  7  1  0
  7  9  2  0
  8 10  1  0
  9 11  1  0
 10 12  1  0
 10 11  2  0
 11 13  1  0
 14 16  1  0
 14  3  1  0
 15 14  2  0
 16 20  1  0
 17 19  2  0
 17 15  1  0
 18 16  2  0
 19 18  1  0
 20 22  1  0
 20 21  1  0
 21 23  1  0
 22 24  1  0
 24 23  1  0
M  RAD  8   5   3   7   2   8   2   9   2  15   2  17   2  18   2  19   2
M  RAD  4  21   3  22   3  23   3  24   3
M  END
>  <vina_score>  (3) 
-7.2130000000000001

>  <pose_id>  (3) 
3

$$$$

     RDKit          3D

 24 26  0  0  0  0  0  0  0  0999 V2000
   20.1130   12.7500   12.3990 O   0  0  0  0  0  0  0  0  0  0  0  0
   20.2600   13.7940   13.0280 C   0  0  0  0  0  0  0  0  0  0  0  0
   19.7680   15.0340   12.6860 N   0  0  0  0  0  0  0  0  0  0  0  0
   19.9020   15.8160   13.3240 H   0  0  0  0  0  0  0  0  0  0  0  0
   21.0690   13.8220   14.3160 C   0  0  0  0  0  2  0  0  0  0  0  0
   22.2170   12.8380   14.3170 C   0  0  0  0  0  0  0  0  0  0  0  0
   23.4410   13.1650   13.7190 C   0  0  0  0  0  3  0  0  0  0  0  0
   22.0730   11.5900   14.9410 C   0  0  0  0  0  3  0  0  0  0  0  0
   24.5030   12.2580   13.7440 C   0  0  0  0  0  3  0  0  0  0  0  0
   23.1350   10.6790   14.9660 C   0  0  0  0  0  0  0  0  0  0  0  0
   24.3540   11.0140   14.3660 C   0  0  0  0  0  0  0  0  0  0  0  0
   22.8750    9.1600   15.7500 Cl  0  0  0  0  0  0  0  0  0  0  0  0
   25.7110    9.9440   14.3590 Cl  0  0  0  0  0  0  0  0  0  0  0  0
   18.9770   15.4010   11.5820 C   0  0  0  0  0  0  0  0  0  0  0  0
   19.4870   15.8090   10.3500 C   0  0  0  0  0  3  0  0  0  0  0  0
   17.5780   15.3280   11.7910 C   0  0  0  0  0  0  0  0  0  0  0  0
   18.6150   16.1430    9.3130 C   0  0  0  0  0  3  0  0  0  0  0  0
   16.7190   15.6680   10.7370 C   0  0  0  0  0  3  0  0  0  0  0  0
   17.2350   16.0730    9.5040 C   0  0  0  0  0  3  0  0  0  0  0  0
   17.1100   14.9230   13.0680 N   0  0  0  0  0  0  0  0  0  0  0  0
   16.1640   15.8940   13.6560 C   0  0  0  0  0  2  0  0  0  0  0  0
   16.5010   13.5760   13.1060 C   0  0  0  0  0  2  0  0  0  0  0  0
   15.2430   15.0330   14.5100 C   0  0  0  0  0  2  0  0  0  0  0  0
   15.0930   13.7860   13.6570 C   0  0  0  0  0  2  0  0  0  0  0  0
  1  2  2  0
  2  5  1  0
  3  2  1  0
  3  4  1  0
  5  6  1  0
  6  8  2  0
  7  9  2  0
  7  6  1  0
  8 10  1  0
  9 11  1  0
 10 12  1  0
 11 10  2  0
 13 11  1  0
 14 16  1  0
 14  3  1  0
 15 14  2  0
 16 20  1  0
 17 19  2  0
 17 15  1  0
 18 16  2  0
 19 18  1  0
 20 22  1  0
 20 21  1  0
 21 23  1  0
 22 24  1  0
 24 23  1  0
M  RAD  8   5   3   7   2   8   2   9   2  15   2  17   2  18   2  19   2
M  RAD  4  21   3  22   3  23   3  24   3
M  END
>  <vina_score>  (4) 
-7.1440000000000001

>  <pose_id>  (4) 
4

$$$$

     RDKit          3D

 24 26  0  0  0  0  0  0  0  0999 V2000
   19.6960   10.9550   14.1150 O   0  0  0  0  0  0  0  0  0  0  0  0
   20.1600   11.9450   14.6740 C   0  0  0  0  0  0  0  0  0  0  0  0
   21.4120   12.0590   15.2340 N   0  0  0  0  0  0  0  0  0  0  0  0
   21.7080   12.9560   15.6150 H   0  0  0  0  0  0  0  0  0  0  0  0
   19.3340   13.2130   14.8270 C   0  0  0  0  0  2  0  0  0  0  0  0
   19.1240   13.9450   13.5200 C   0  0  0  0  0  0  0  0  0  0  0  0
   17.8360   14.2910   13.0920 C   0  0  0  0  0  3  0  0  0  0  0  0
   20.2270   14.3060   12.7300 C   0  0  0  0  0  3  0  0  0  0  0  0
   17.6540   14.9870   11.8940 C   0  0  0  0  0  3  0  0  0  0  0  0
   20.0460   15.0000   11.5290 C   0  0  0  0  0  0  0  0  0  0  0  0
   18.7560   15.3430   11.1100 C   0  0  0  0  0  0  0  0  0  0  0  0
   21.4550   15.4030   10.6120 Cl  0  0  0  0  0  0  0  0  0  0  0  0
   18.4530   16.2020    9.6420 Cl  0  0  0  0  0  0  0  0  0  0  0  0
   22.4520   11.1120   15.2850 C   0  0  0  0  0  0  0  0  0  0  0  0
   22.5820   10.1390   16.2740 C   0  0  0  0  0  3  0  0  0  0  0  0
   23.3980   11.1970   14.2330 C   0  0  0  0  0  0  0  0  0  0  0  0
   23.6470    9.2380   16.2280 C   0  0  0  0  0  3  0  0  0  0  0  0
   24.4600   10.2840   14.2050 C   0  0  0  0  0  3  0  0  0  0  0  0
   24.5830    9.3080   15.1970 C   0  0  0  0  0  3  0  0  0  0  0  0
   23.2300   12.2170   13.2610 N   0  0  0  0  0  0  0  0  0  0  0  0
   24.3910   13.1290   13.1930 C   0  0  0  0  0  2  0  0  0  0  0  0
   22.9220   11.7300   11.8990 C   0  0  0  0  0  2  0  0  0  0  0  0
   24.4150   13.5800   11.7390 C   0  0  0  0  0  2  0  0  0  0  0  0
   24.0160   12.3110   11.0070 C   0  0  0  0  0  2  0  0  0  0  0  0
  1  2  2  0
  2  5  1  0
  2  3  1  0
  3 14  1  0
  3  4  1  0
  6  5  1  0
  7  6  1  0
  8  6  2  0
  9  7  2  0
 10  8  1  0
 11 10  2  0
 11  9  1  0
 12 10  1  0
 13 11  1  0
 14 15  2  0
 16 14  1  0
 17 15  1  0
 18 16  2  0
 18 19  1  0
 19 17  2  0
 20 16  1  0
 21 20  1  0
 22 20  1  0
 23 21  1  0
 24 23  1  0
 24 22  1  0
M  RAD  8   5   3   7   2   8   2   9   2  15   2  17   2  18   2  19   2
M  RAD  4  21   3  22   3  23   3  24   3
M  END
>  <vina_score>  (5) 
-6.7599999999999998

>  <pose_id>  (5) 
5

$$$$
