
     RDKit          3D

 20 21  0  0  0  0  0  0  0  0999 V2000
   20.0360   14.2860   12.5520 C   0  0  0  0  0  2  0  0  0  0  0  0
   20.9770   15.3760   12.3100 N   0  0  0  0  0  0  0  0  0  0  0  0
   21.5240   15.5770   13.1450 H   0  0  0  0  0  0  0  0  0  0  0  0
   21.9510   15.0550   11.3610 C   0  0  0  0  0  0  0  0  0  0  0  0
   23.7690   13.7020   10.5410 C   0  0  0  0  0  0  0  0  0  0  0  0
   23.7950   14.5070    9.4040 C   0  0  0  0  0  3  0  0  0  0  0  0
   22.8160   13.9770   11.5260 C   0  0  0  0  0  3  0  0  0  0  0  0
   22.8890   15.5500    9.3180 C   0  0  0  0  0  3  0  0  0  0  0  0
   21.9740   15.8390   10.2680 N   0  0  0  0  0  0  0  0  0  0  0  0
   24.6880   12.5270   10.6740 C   0  0  0  0  0  1  0  0  0  0  0  0
   18.6240   14.7970   12.3810 C   0  0  0  0  0  0  0  0  0  0  0  0
   17.7280   14.7430   13.4650 C   0  0  0  0  0  3  0  0  0  0  0  0
   18.1720   15.3480   11.1750 C   0  0  0  0  0  0  0  0  0  0  0  0
   16.4260   15.2320   13.3370 C   0  0  0  0  0  0  0  0  0  0  0  0
   16.8640   15.8380   11.0570 C   0  0  0  0  0  0  0  0  0  0  0  0
   15.9870   15.7810   12.1370 C   0  0  0  0  0  3  0  0  0  0  0  0
   15.3520   15.1520   14.6800 Cl  0  0  0  0  0  0  0  0  0  0  0  0
   16.3190   16.5150    9.5670 Cl  0  0  0  0  0  0  0  0  0  0  0  0
   19.0290   15.3910   10.1070 O   0  0  0  0  0  0  0  0  0  0  0  0
   18.7080   16.0870    9.5020 H   0  0  0  0  0  0  0  0  0  0  0  0
  2  1  1  0
  2  3  1  0
  4  7  1  0
  4  2  1  0
  5 10  1  0
  5  7  2  0
  6  5  1  0
  8  6  2  0
  8  9  1  0
  9  4  2  0
 11  1  1  0
 11 12  2  0
 13 11  1  0
 14 12  1  0
 14 17  1  0
 15 13  2  0
 15 16  1  0
 16 14  2  0
 18 15  1  0
 19 13  1  0
 20 19  1  0
M  RAD  7   1   3   6   2   7   2   8   2  10   2  12   2  16   2
M  END
>  <vina_score>  (1) 
-6.1559999999999997

>  <pose_id>  (1) 
1

$$$$

     RDKit          3D

 20 21  0  0  0  0  0  0  0  0999 V2000
   22.8230   14.5350   12.7450 C   0  0  0  0  0  2  0  0  0  0  0  0
   21.3850   14.3030   12.6340 N   0  0  0  0  0  0  0  0  0  0  0  0
   20.8870   14.7180   13.4200 H   0  0  0  0  0  0  0  0  0  0  0  0
   20.8150   14.9360   11.5260 C   0  0  0  0  0  0  0  0  0  0  0  0
   18.9270   15.7550   10.2720 C   0  0  0  0  0  0  0  0  0  0  0  0
   19.8240   16.2300    9.3170 C   0  0  0  0  0  3  0  0  0  0  0  0
   19.4400   15.1120   11.4020 C   0  0  0  0  0  3  0  0  0  0  0  0
   21.1760   16.0220    9.5280 C   0  0  0  0  0  3  0  0  0  0  0  0
   21.6870   15.3870   10.6060 N   0  0  0  0  0  0  0  0  0  0  0  0
   17.4550   15.9920   10.1300 C   0  0  0  0  0  1  0  0  0  0  0  0
   23.5310   13.2110   12.9190 C   0  0  0  0  0  0  0  0  0  0  0  0
   23.8800   12.7740   14.2100 C   0  0  0  0  0  3  0  0  0  0  0  0
   23.8390   12.3830   11.8320 C   0  0  0  0  0  0  0  0  0  0  0  0
   24.5130   11.5430   14.3970 C   0  0  0  0  0  0  0  0  0  0  0  0
   24.4730   11.1490   12.0310 C   0  0  0  0  0  0  0  0  0  0  0  0
   24.8120   10.7250   13.3130 C   0  0  0  0  0  3  0  0  0  0  0  0
   24.9300   11.0340   15.9880 Cl  0  0  0  0  0  0  0  0  0  0  0  0
   24.8470   10.1370   10.6840 Cl  0  0  0  0  0  0  0  0  0  0  0  0
   23.5190   12.8050   10.5690 O   0  0  0  0  0  0  0  0  0  0  0  0
   22.8360   12.2000   10.2210 H   0  0  0  0  0  0  0  0  0  0  0  0
  1 11  1  0
  2  1  1  0
  2  3  1  0
  4  2  1  0
  5  7  2  0
  6  8  2  0
  6  5  1  0
  7  4  1  0
  8  9  1  0
  9  4  2  0
 10  5  1  0
 11 12  2  0
 12 14  1  0
 13 15  2  0
 13 11  1  0
 14 17  1  0
 15 16  1  0
 16 14  2  0
 18 15  1  0
 19 13  1  0
 20 19  1  0
M  RAD  7   1   3   6   2   7   2   8   2  10   2  12   2  16   2
M  END
>  <vina_score>  (2) 
-6.109

>  <pose_id>  (2) 
2

$$$$

     RDKit          3D

 20 21  0  0  0  0  0  0  0  0999 V2000
   21.1900   10.9550   20.4340 C   0  0  0  0  0  2  0  0  0  0  0  0
   20.4810    9.8310   21.0390 N   0  0  0  0  0  0  0  0  0  0  0  0
   20.9450    9.5240   21.8930 H   0  0  0  0  0  0  0  0  0  0  0  0
   19.1980   10.1690   21.4780 C   0  0  0  0  0  0  0  0  0  0  0  0
   17.6770   11.4090   22.8780 C   0  0  0  0  0  0  0  0  0  0  0  0
   16.6260   10.7720   22.2230 C   0  0  0  0  0  3  0  0  0  0  0  0
   18.9840   11.1090   22.4820 C   0  0  0  0  0  3  0  0  0  0  0  0
   16.9310    9.8600   21.2260 C   0  0  0  0  0  3  0  0  0  0  0  0
   18.1880    9.5470   20.8440 N   0  0  0  0  0  0  0  0  0  0  0  0
   17.4160   12.4430   23.9290 C   0  0  0  0  0  1  0  0  0  0  0  0
   21.4700   10.6460   18.9810 C   0  0  0  0  0  0  0  0  0  0  0  0
   22.7610   10.2430   18.5920 C   0  0  0  0  0  3  0  0  0  0  0  0
   20.4760   10.7280   17.9980 C   0  0  0  0  0  0  0  0  0  0  0  0
   23.0360    9.9290   17.2590 C   0  0  0  0  0  0  0  0  0  0  0  0
   20.7620   10.4090   16.6630 C   0  0  0  0  0  0  0  0  0  0  0  0
   22.0420   10.0090   16.2890 C   0  0  0  0  0  3  0  0  0  0  0  0
   24.6250    9.4390   16.8120 Cl  0  0  0  0  0  0  0  0  0  0  0  0
   19.5290   10.5130   15.4610 Cl  0  0  0  0  0  0  0  0  0  0  0  0
   19.2200   11.1360   18.3610 O   0  0  0  0  0  0  0  0  0  0  0  0
   18.6770   10.3340   18.4880 H   0  0  0  0  0  0  0  0  0  0  0  0
  1  2  1  0
  2  4  1  0
  2  3  1  0
  4  7  1  0
  5 10  1  0
  6  5  1  0
  7  5  2  0
  8  6  2  0
  9  8  1  0
  9  4  2  0
 11  1  1  0
 12 11  2  0
 13 19  1  0
 13 11  1  0
 14 12  1  0
 15 13  2  0
 16 15  1  0
 16 14  2  0
 17 14  1  0
 18 15  1  0
 19 20  1  0
M  RAD  7   1   3   6   2   7   2   8   2  10   2  12   2  16   2
M  END
>  <vina_score>  (3) 
-6.0549999999999997

>  <pose_id>  (3) 
3

$$$$

     RDKit          3D

 20 21  0  0  0  0  0  0  0  0999 V2000
   21.1950   14.6550   13.6630 C   0  0  0  0  0  2  0  0  0  0  0  0
   19.9670   13.8660   13.6120 N   0  0  0  0  0  0  0  0  0  0  0  0
   19.5080   13.8450   14.5210 H   0  0  0  0  0  0  0  0  0  0  0  0
   18.9950   14.4240   12.7770 C   0  0  0  0  0  0  0  0  0  0  0  0
   18.3050   15.5730   10.7740 C   0  0  0  0  0  0  0  0  0  0  0  0
   16.9880   15.4490   11.2110 C   0  0  0  0  0  3  0  0  0  0  0  0
   19.3200   15.0340   11.5690 C   0  0  0  0  0  3  0  0  0  0  0  0
   16.7550   14.8160   12.4200 C   0  0  0  0  0  3  0  0  0  0  0  0
   17.7260   14.3050   13.2080 N   0  0  0  0  0  0  0  0  0  0  0  0
   18.6210   16.2010    9.4520 C   0  0  0  0  0  1  0  0  0  0  0  0
   22.3290   13.8550   13.0650 C   0  0  0  0  0  0  0  0  0  0  0  0
   22.8300   14.2000   11.7960 C   0  0  0  0  0  3  0  0  0  0  0  0
   22.9210   12.7820   13.7430 C   0  0  0  0  0  0  0  0  0  0  0  0
   23.8930   13.4890   11.2340 C   0  0  0  0  0  0  0  0  0  0  0  0
   23.9890   12.0770   13.1720 C   0  0  0  0  0  0  0  0  0  0  0  0
   24.4790   12.4280   11.9160 C   0  0  0  0  0  3  0  0  0  0  0  0
   24.4850   13.9320    9.6800 Cl  0  0  0  0  0  0  0  0  0  0  0  0
   24.7110   10.7570   14.0170 Cl  0  0  0  0  0  0  0  0  0  0  0  0
   22.4320   12.4260   14.9720 O   0  0  0  0  0  0  0  0  0  0  0  0
   21.5150   12.7590   15.0310 H   0  0  0  0  0  0  0  0  0  0  0  0
  2  1  1  0
  2  3  1  0
  4  9  2  0
  4  2  1  0
  5  6  1  0
  5  7  2  0
  6  8  2  0
  7  4  1  0
  8  9  1  0
 10  5  1  0
 11  1  1  0
 11 13  1  0
 12 11  2  0
 13 19  1  0
 14 12  1  0
 14 16  2  0
 15 13  2  0
 15 18  1  0
 16 15  1  0
 17 14  1  0
 19 20  1  0
M  RAD  7   1   3   6   2   7   2   8   2  10   2  12   2  16   2
M  END
>  <vina_score>  (4) 
-5.9459999999999997

>  <pose_id>  (4) 
4

$$$$

     RDKit          3D

 20 21  0  0  0  0  0  0  0  0999 V2000
   21.4810   10.9240   19.9690 C   0  0  0  0  0  2  0  0  0  0  0  0
   20.9470    9.9770   20.9440 N   0  0  0  0  0  0  0  0  0  0  0  0
   21.4820   10.0050   21.8110 H   0  0  0  0  0  0  0  0  0  0  0  0
   19.6510   10.2950   21.3590 C   0  0  0  0  0  0  0  0  0  0  0  0
   17.2630    9.9650   21.3480 C   0  0  0  0  0  0  0  0  0  0  0  0
   17.1620   10.9950   22.2810 C   0  0  0  0  0  3  0  0  0  0  0  0
   18.5360    9.6030   20.8960 C   0  0  0  0  0  3  0  0  0  0  0  0
   18.3260   11.6200   22.6960 C   0  0  0  0  0  3  0  0  0  0  0  0
   19.5600   11.2940   22.2560 N   0  0  0  0  0  0  0  0  0  0  0  0
   16.0500    9.2140   20.8960 C   0  0  0  0  0  1  0  0  0  0  0  0
   21.5050   10.2760   18.6040 C   0  0  0  0  0  0  0  0  0  0  0  0
   20.5150   10.6050   17.6600 C   0  0  0  0  0  3  0  0  0  0  0  0
   22.5000    9.3630   18.2310 C   0  0  0  0  0  0  0  0  0  0  0  0
   20.5310   10.0360   16.3850 C   0  0  0  0  0  0  0  0  0  0  0  0
   22.5090    8.7990   16.9480 C   0  0  0  0  0  0  0  0  0  0  0  0
   21.5250    9.1340   16.0200 C   0  0  0  0  0  3  0  0  0  0  0  0
   19.3060   10.4560   15.2510 Cl  0  0  0  0  0  0  0  0  0  0  0  0
   23.7400    7.6760   16.4990 Cl  0  0  0  0  0  0  0  0  0  0  0  0
   23.4610    9.0220   19.1460 O   0  0  0  0  0  0  0  0  0  0  0  0
   24.3260    9.2700   18.7690 H   0  0  0  0  0  0  0  0  0  0  0  0
  1  2  1  0
  2  4  1  0
  2  3  1  0
  4  9  2  0
  5  6  1  0
  6  8  2  0
  7  5  2  0
  7  4  1  0
  9  8  1  0
 10  5  1  0
 11  1  1  0
 12 11  2  0
 13 11  1  0
 13 19  1  0
 14 12  1  0
 15 13  2  0
 16 14  2  0
 16 15  1  0
 17 14  1  0
 18 15  1  0
 20 19  1  0
M  RAD  7   1   3   6   2   7   2   8   2  10   2  12   2  16   2
M  END
>  <vina_score>  (5) 
-5.8390000000000004

>  <pose_id>  (5) 
5

$$$$
