
     RDKit          3D

 47 51  0  0  1  0  0  0  0  0999 V2000
   25.5080   10.9070   15.8210 C   0  0  0  0  0  3  0  0  0  0  0  0
   24.7800    9.7200   16.5010 C   0  0  0  0  0  0  0  0  0  0  0  0
   23.8450   10.0780   17.4540 N   0  0  0  0  0  0  0  0  0  0  0  0
   24.9600    8.5480   16.1720 O   0  0  0  0  0  0  0  0  0  0  0  0
   23.4840   11.0270   17.4220 H   0  0  0  0  0  0  0  0  0  0  0  0
   23.0030    9.0740   18.0770 C   0  0  0  0  0  2  0  0  0  0  0  0
   21.5050    9.3330   17.8880 C   0  0  0  0  0  3  0  0  0  0  0  0
   19.5250    9.6600   19.0410 C   0  0  0  0  0  3  0  0  0  0  0  0
   20.7670    8.9220   19.0540 O   0  0  0  0  0  0  0  0  0  0  0  0
   19.6630   10.8060   18.0230 C   0  0  0  0  0  3  0  0  0  0  0  0
   21.1580   10.8100   17.7280 C   0  0  0  0  0  3  0  0  0  0  0  0
   19.2350   10.1220   20.3830 N   0  0  0  0  0  0  0  0  0  0  0  0
   14.5300   10.3670   20.6950 N   0  0  0  0  0  0  0  0  0  0  0  0
   15.7480   10.6130   21.2430 C   0  0  0  0  0  0  0  0  0  0  0  0
   15.8440   11.1030   22.4410 N   0  0  0  0  0  0  0  0  0  0  0  0
   16.7840   10.2870   20.4000 N   0  0  0  0  0  0  0  0  0  0  0  0
   17.1050   11.3300   23.0050 C   0  0  0  0  0  0  0  0  0  0  0  0
   18.0190   10.4250   20.9100 C   0  0  0  0  0  0  0  0  0  0  0  0
   17.2500   11.8250   24.1160 O   0  0  0  0  0  0  0  0  0  0  0  0
   18.2440   10.9280   22.1660 C   0  0  0  0  0  0  0  0  0  0  0  0
   19.5960   10.9510   22.4270 N   0  0  0  0  0  0  0  0  0  0  0  0
   20.1600   10.4360   21.3520 C   0  0  0  0  0  3  0  0  0  0  0  0
   14.4020   10.7720   19.7760 H   0  0  0  0  0  0  0  0  0  0  0  0
   13.7960   10.6980   21.3190 H   0  0  0  0  0  0  0  0  0  0  0  0
   16.5570    9.6360   19.6570 H   0  0  0  0  0  0  0  0  0  0  0  0
   18.9610   10.5070   16.8000 O   0  0  0  0  0  0  0  0  0  0  0  0
   18.4130   11.2820   16.5810 H   0  0  0  0  0  0  0  0  0  0  0  0
   21.4510   11.3300   16.4390 O   0  0  0  0  0  0  0  0  0  0  0  0
   21.8560   10.5870   15.9440 H   0  0  0  0  0  0  0  0  0  0  0  0
   26.3040   11.6420   16.8340 N   0  0  0  0  0  0  0  0  0  0  0  0
   26.0840   11.2460   17.7530 H   0  0  0  0  0  0  0  0  0  0  0  0
   27.2930   11.4610   16.6630 H   0  0  0  0  0  0  0  0  0  0  0  0
   24.5110   11.8480   15.1170 C   0  0  0  0  0  2  0  0  0  0  0  0
   24.4730   11.6380   13.6360 C   0  0  0  0  0  0  0  0  0  0  0  0
   24.9500   10.6020   12.8570 C   0  0  0  0  0  3  0  0  0  0  0  0
   23.9200   12.5180   12.7330 N   0  0  0  0  0  0  0  0  0  0  0  0
   24.7350   10.8430   11.5280 N   0  0  0  0  0  0  0  0  0  0  0  0
   24.1250   12.0040   11.4820 C   0  0  0  0  0  3  0  0  0  0  0  0
   23.2560   13.7800   13.0030 C   0  0  0  0  0  2  0  0  0  0  0  0
   22.0500   13.8820   12.2440 O   0  0  0  0  0  0  0  0  0  0  0  0
   21.9680   15.0450   11.4220 C   0  0  0  0  0  2  0  0  0  0  0  0
   20.5560   15.3310   10.9740 C   0  0  0  0  0  0  0  0  0  0  0  0
   19.4660   14.9820   11.7860 C   0  0  0  0  0  3  0  0  0  0  0  0
   20.3130   15.9600    9.7440 C   0  0  0  0  0  3  0  0  0  0  0  0
   18.1620   15.2510   11.3700 C   0  0  0  0  0  3  0  0  0  0  0  0
   19.0080   16.2290    9.3320 C   0  0  0  0  0  3  0  0  0  0  0  0
   17.9330   15.8740   10.1440 C   0  0  0  0  0  3  0  0  0  0  0  0
  1 33  1  0
  1  2  1  0
  1 30  1  1
  2  3  1  0
  3  6  1  0
  4  2  2  0
  5  3  1  0
  7  6  1  0
  7  9  1  0
  8  9  1  1
  8 12  1  0
 10 26  1  0
 10  8  1  0
 11 28  1  0
 11  7  1  0
 11 10  1  1
 12 18  1  0
 12 22  1  0
 13 14  1  0
 13 24  1  0
 14 15  2  0
 15 17  1  0
 16 18  1  0
 16 14  1  0
 17 19  2  0
 18 20  2  0
 20 21  1  0
 20 17  1  0
 22 21  2  0
 23 13  1  0
 25 16  1  0
 27 26  1  0
 29 28  1  0
 30 31  1  0
 32 30  1  0
 34 33  1  0
 35 34  2  0
 36 39  1  0
 36 34  1  0
 37 35  1  0
 38 37  2  0
 38 36  1  0
 40 39  1  0
 41 40  1  0
 42 41  1  0
 42 43  1  0
 44 42  2  0
 45 43  2  0
 46 44  1  0
 46 47  2  0
 47 45  1  0
M  END
>  <vina_score>  (1) 
-8.9700000000000006

>  <pose_id>  (1) 
1

$$$$

     RDKit          3D

 47 51  0  0  1  0  0  0  0  0999 V2000
   24.6890   11.1410   16.0360 C   0  0  0  0  0  3  0  0  0  0  0  0
   23.4530   10.3720   16.5690 C   0  0  0  0  0  0  0  0  0  0  0  0
   23.4460   10.1550   17.9340 N   0  0  0  0  0  0  0  0  0  0  0  0
   22.5100   10.0430   15.8500 O   0  0  0  0  0  0  0  0  0  0  0  0
   24.0390   10.7480   18.5050 H   0  0  0  0  0  0  0  0  0  0  0  0
   22.2910    9.5600   18.5810 C   0  0  0  0  0  2  0  0  0  0  0  0
   21.3190   10.5920   19.1600 C   0  0  0  0  0  3  0  0  0  0  0  0
   19.5230   11.9480   18.6190 C   0  0  0  0  0  3  0  0  0  0  0  0
   20.7650   11.4130   18.1140 O   0  0  0  0  0  0  0  0  0  0  0  0
   19.1410   11.1550   19.8820 C   0  0  0  0  0  3  0  0  0  0  0  0
   20.0990    9.9710   19.8320 C   0  0  0  0  0  3  0  0  0  0  0  0
   18.5200   11.8800   17.5780 N   0  0  0  0  0  0  0  0  0  0  0  0
   20.8810   11.7690   13.4900 N   0  0  0  0  0  0  0  0  0  0  0  0
   19.6980   11.8590   14.1490 C   0  0  0  0  0  0  0  0  0  0  0  0
   18.5790   11.8860   13.4910 N   0  0  0  0  0  0  0  0  0  0  0  0
   19.8530   11.9090   15.5140 N   0  0  0  0  0  0  0  0  0  0  0  0
   17.3630   11.9550   14.1820 C   0  0  0  0  0  0  0  0  0  0  0  0
   18.7180   11.9130   16.2330 C   0  0  0  0  0  0  0  0  0  0  0  0
   16.2820   12.0210   13.6080 O   0  0  0  0  0  0  0  0  0  0  0  0
   17.4770   11.9380   15.6480 C   0  0  0  0  0  0  0  0  0  0  0  0
   16.5010   11.9300   16.6200 N   0  0  0  0  0  0  0  0  0  0  0  0
   17.1570   11.8670   17.7610 C   0  0  0  0  0  3  0  0  0  0  0  0
   21.5580   12.4720   13.7600 H   0  0  0  0  0  0  0  0  0  0  0  0
   20.7230   11.8170   12.4850 H   0  0  0  0  0  0  0  0  0  0  0  0
   20.7370   11.5610   15.8690 H   0  0  0  0  0  0  0  0  0  0  0  0
   19.4160   11.9100   21.0780 O   0  0  0  0  0  0  0  0  0  0  0  0
   18.6000   12.3860   21.3170 H   0  0  0  0  0  0  0  0  0  0  0  0
   20.3640    9.4380   21.1210 O   0  0  0  0  0  0  0  0  0  0  0  0
   19.5170    9.5030   21.6100 H   0  0  0  0  0  0  0  0  0  0  0  0
   25.4850   11.6480   17.1810 N   0  0  0  0  0  0  0  0  0  0  0  0
   26.2850   12.1640   16.8020 H   0  0  0  0  0  0  0  0  0  0  0  0
   24.9180   12.3190   17.6980 H   0  0  0  0  0  0  0  0  0  0  0  0
   24.2720   12.2940   15.1020 C   0  0  0  0  0  2  0  0  0  0  0  0
   24.4110   11.9390   13.6550 C   0  0  0  0  0  0  0  0  0  0  0  0
   24.8290   10.7710   13.0480 C   0  0  0  0  0  3  0  0  0  0  0  0
   24.1310   12.7870   12.6080 N   0  0  0  0  0  0  0  0  0  0  0  0
   24.8420   10.8990   11.6860 N   0  0  0  0  0  0  0  0  0  0  0  0
   24.4290   12.1220   11.4510 C   0  0  0  0  0  3  0  0  0  0  0  0
   23.6350   14.1500   12.6680 C   0  0  0  0  0  2  0  0  0  0  0  0
   22.2820   14.2090   12.2130 O   0  0  0  0  0  0  0  0  0  0  0  0
   22.0500   15.1630   11.1770 C   0  0  0  0  0  2  0  0  0  0  0  0
   20.5810   15.3540   10.8950 C   0  0  0  0  0  0  0  0  0  0  0  0
   19.6170   14.9720   11.8390 C   0  0  0  0  0  3  0  0  0  0  0  0
   20.1580   15.9280    9.6870 C   0  0  0  0  0  3  0  0  0  0  0  0
   18.2590   15.1540   11.5760 C   0  0  0  0  0  3  0  0  0  0  0  0
   18.7990   16.1100    9.4260 C   0  0  0  0  0  3  0  0  0  0  0  0
   17.8510   15.7220   10.3700 C   0  0  0  0  0  3  0  0  0  0  0  0
  1 33  1  0
  1  2  1  0
  1 30  1  1
  2  3  1  0
  3  5  1  0
  3  6  1  0
  4  2  2  0
  7  6  1  0
  7 11  1  0
  8 12  1  0
  8 10  1  0
  8  9  1  0
  7  9  1  0
 10 26  1  0
 10 11  1  1
 11 28  1  0
 12 22  1  0
 13 23  1  0
 13 14  1  0
 14 16  1  0
 15 14  2  0
 15 17  1  0
 16 25  1  0
 16 18  1  0
 17 20  1  0
 18 12  1  0
 19 17  2  0
 20 18  2  0
 20 21  1  0
 21 22  2  0
 24 13  1  0
 26 27  1  0
 28 29  1  0
 30 32  1  0
 31 30  1  0
 34 33  1  0
 35 34  2  0
 36 39  1  0
 36 34  1  0
 37 35  1  0
 38 37  2  0
 38 36  1  0
 40 39  1  0
 41 40  1  0
 42 41  1  0
 42 43  1  0
 44 42  2  0
 45 43  2  0
 46 44  1  0
 46 47  2  0
 47 45  1  0
M  END
>  <vina_score>  (2) 
-8.9060000000000006

>  <pose_id>  (2) 
2

$$$$

     RDKit          3D

 47 51  0  0  1  0  0  0  0  0999 V2000
   24.1060   11.8070   14.9760 C   0  0  0  0  0  3  0  0  0  0  0  0
   23.3350   11.0680   16.1000 C   0  0  0  0  0  0  0  0  0  0  0  0
   21.9980   10.8380   15.8360 N   0  0  0  0  0  0  0  0  0  0  0  0
   23.8810   10.6480   17.1200 O   0  0  0  0  0  0  0  0  0  0  0  0
   21.7000   10.8700   14.8660 H   0  0  0  0  0  0  0  0  0  0  0  0
   21.1910   10.0460   16.7460 C   0  0  0  0  0  2  0  0  0  0  0  0
   19.6850   10.1850   16.5030 C   0  0  0  0  0  3  0  0  0  0  0  0
   17.6360   10.2410   17.5770 C   0  0  0  0  0  3  0  0  0  0  0  0
   18.9380    9.6180   17.5960 O   0  0  0  0  0  0  0  0  0  0  0  0
   17.7100   11.4720   16.6570 C   0  0  0  0  0  3  0  0  0  0  0  0
   19.2100   11.6330   16.4380 C   0  0  0  0  0  3  0  0  0  0  0  0
   17.2470   10.5660   18.9330 N   0  0  0  0  0  0  0  0  0  0  0  0
   21.2620   11.3220   21.3010 N   0  0  0  0  0  0  0  0  0  0  0  0
   19.9130   11.1760   21.3140 C   0  0  0  0  0  0  0  0  0  0  0  0
   19.2430   11.3390   22.4150 N   0  0  0  0  0  0  0  0  0  0  0  0
   19.4020   10.8560   20.0780 N   0  0  0  0  0  0  0  0  0  0  0  0
   17.8490   11.2090   22.4120 C   0  0  0  0  0  0  0  0  0  0  0  0
   18.0620   10.7800   20.0010 C   0  0  0  0  0  0  0  0  0  0  0  0
   17.1760   11.3170   23.4290 O   0  0  0  0  0  0  0  0  0  0  0  0
   17.2520   10.9380   21.0960 C   0  0  0  0  0  0  0  0  0  0  0  0
   15.9310   10.8160   20.7230 N   0  0  0  0  0  0  0  0  0  0  0  0
   15.9610   10.6210   19.4200 C   0  0  0  0  0  3  0  0  0  0  0  0
   21.7580   10.5430   20.8850 H   0  0  0  0  0  0  0  0  0  0  0  0
   21.6030   11.4770   22.2480 H   0  0  0  0  0  0  0  0  0  0  0  0
   19.9940   11.0780   19.2870 H   0  0  0  0  0  0  0  0  0  0  0  0
   17.0920   11.2110   15.3820 O   0  0  0  0  0  0  0  0  0  0  0  0
   17.3880   10.3300   15.0880 H   0  0  0  0  0  0  0  0  0  0  0  0
   19.5080   12.2790   15.2090 O   0  0  0  0  0  0  0  0  0  0  0  0
   20.1530   12.9820   15.4340 H   0  0  0  0  0  0  0  0  0  0  0  0
   25.2180   12.5860   15.5730 N   0  0  0  0  0  0  0  0  0  0  0  0
   25.5670   12.0650   16.3830 H   0  0  0  0  0  0  0  0  0  0  0  0
   25.9810   12.6310   14.8990 H   0  0  0  0  0  0  0  0  0  0  0  0
   23.1690   12.7200   14.1610 C   0  0  0  0  0  2  0  0  0  0  0  0
   23.5410   12.7760   12.7120 C   0  0  0  0  0  0  0  0  0  0  0  0
   24.2350   11.8800   11.9230 C   0  0  0  0  0  3  0  0  0  0  0  0
   23.2360   13.8160   11.8630 N   0  0  0  0  0  0  0  0  0  0  0  0
   24.3850   12.3570   10.6490 N   0  0  0  0  0  0  0  0  0  0  0  0
   23.7850   13.5240   10.6450 C   0  0  0  0  0  3  0  0  0  0  0  0
   22.4950   15.0280   12.1620 C   0  0  0  0  0  2  0  0  0  0  0  0
   21.3110   15.0980   11.3650 O   0  0  0  0  0  0  0  0  0  0  0  0
   20.1130   14.7530   12.0590 C   0  0  0  0  0  2  0  0  0  0  0  0
   18.8770   15.2210   11.3330 C   0  0  0  0  0  0  0  0  0  0  0  0
   17.6100   15.0820   11.9180 C   0  0  0  0  0  3  0  0  0  0  0  0
   18.9780   15.8130   10.0650 C   0  0  0  0  0  3  0  0  0  0  0  0
   16.4690   15.5200   11.2440 C   0  0  0  0  0  3  0  0  0  0  0  0
   17.8360   16.2520    9.3940 C   0  0  0  0  0  3  0  0  0  0  0  0
   16.5820   16.1040    9.9840 C   0  0  0  0  0  3  0  0  0  0  0  0
  1 33  1  0
  1 30  1  1
  1  2  1  0
  2  4  2  0
  2  3  1  0
  3  6  1  0
  5  3  1  0
  7  6  1  0
  7  9  1  0
  8  9  1  1
  8 12  1  0
 10 26  1  0
 10  8  1  0
 11 28  1  0
 11  7  1  0
 11 10  1  1
 12 22  1  0
 12 18  1  0
 13 14  1  0
 13 24  1  0
 14 15  2  0
 16 14  1  0
 17 15  1  0
 17 19  2  0
 18 16  1  0
 18 20  2  0
 20 17  1  0
 21 20  1  0
 22 21  2  0
 23 13  1  0
 25 16  1  0
 27 26  1  0
 28 29  1  0
 30 31  1  0
 32 30  1  0
 34 33  1  0
 35 34  2  0
 36 39  1  0
 36 34  1  0
 37 35  1  0
 38 37  2  0
 38 36  1  0
 40 41  1  0
 40 39  1  0
 42 43  1  0
 42 41  1  0
 44 42  2  0
 45 43  2  0
 46 47  2  0
 46 44  1  0
 47 45  1  0
M  END
>  <vina_score>  (3) 
-8.8800000000000008

>  <pose_id>  (3) 
3

$$$$

     RDKit          3D

 47 51  0  0  1  0  0  0  0  0999 V2000
   23.5570    8.3530   17.9560 C   0  0  0  0  0  3  0  0  0  0  0  0
   22.9510    9.7230   18.3540 C   0  0  0  0  0  0  0  0  0  0  0  0
   22.2100    9.7170   19.5200 N   0  0  0  0  0  0  0  0  0  0  0  0
   23.1690   10.7590   17.7250 O   0  0  0  0  0  0  0  0  0  0  0  0
   22.3660    8.9520   20.1690 H   0  0  0  0  0  0  0  0  0  0  0  0
   21.6920   10.9550   20.0740 C   0  0  0  0  0  2  0  0  0  0  0  0
   20.1970   10.8990   20.3980 C   0  0  0  0  0  3  0  0  0  0  0  0
   18.1030   11.4220   19.5610 C   0  0  0  0  0  3  0  0  0  0  0  0
   19.4720   11.8760   19.6260 O   0  0  0  0  0  0  0  0  0  0  0  0
   18.0670    9.9520   20.0150 C   0  0  0  0  0  3  0  0  0  0  0  0
   19.5420    9.5720   20.0280 C   0  0  0  0  0  3  0  0  0  0  0  0
   17.6040   11.6150   18.2160 N   0  0  0  0  0  0  0  0  0  0  0  0
   21.3820   11.4990   15.3870 N   0  0  0  0  0  0  0  0  0  0  0  0
   20.0520   11.7200   15.5440 C   0  0  0  0  0  0  0  0  0  0  0  0
   19.3040   11.9910   14.5190 N   0  0  0  0  0  0  0  0  0  0  0  0
   19.6490   11.6170   16.8550 N   0  0  0  0  0  0  0  0  0  0  0  0
   17.9290   12.1940   14.6900 C   0  0  0  0  0  0  0  0  0  0  0  0
   18.3290   11.7400   17.0730 C   0  0  0  0  0  0  0  0  0  0  0  0
   17.1870   12.4890   13.7610 O   0  0  0  0  0  0  0  0  0  0  0  0
   17.4410   12.0230   16.0660 C   0  0  0  0  0  0  0  0  0  0  0  0
   16.1620   12.0850   16.5740 N   0  0  0  0  0  0  0  0  0  0  0  0
   16.2900   11.8090   17.8560 C   0  0  0  0  0  3  0  0  0  0  0  0
   21.9680   12.0530   15.9990 H   0  0  0  0  0  0  0  0  0  0  0  0
   21.6490   11.6650   14.4180 H   0  0  0  0  0  0  0  0  0  0  0  0
   20.2690   11.0980   17.4660 H   0  0  0  0  0  0  0  0  0  0  0  0
   17.5570    9.8310   21.3570 O   0  0  0  0  0  0  0  0  0  0  0  0
   18.3010    9.9830   21.9680 H   0  0  0  0  0  0  0  0  0  0  0  0
   19.8200    8.5220   20.9430 O   0  0  0  0  0  0  0  0  0  0  0  0
   19.7130    8.9180   21.8340 H   0  0  0  0  0  0  0  0  0  0  0  0
   24.4870    7.8990   19.0190 N   0  0  0  0  0  0  0  0  0  0  0  0
   24.0970    7.0470   19.4340 H   0  0  0  0  0  0  0  0  0  0  0  0
   25.3720    7.6400   18.5860 H   0  0  0  0  0  0  0  0  0  0  0  0
   24.2740    8.4310   16.5950 C   0  0  0  0  0  2  0  0  0  0  0  0
   23.3460    8.1960   15.4440 C   0  0  0  0  0  0  0  0  0  0  0  0
   22.2850    7.3220   15.3020 C   0  0  0  0  0  3  0  0  0  0  0  0
   23.4080    8.8570   14.2380 N   0  0  0  0  0  0  0  0  0  0  0  0
   21.7340    7.4120   14.0540 N   0  0  0  0  0  0  0  0  0  0  0  0
   22.4350    8.3320   13.4330 C   0  0  0  0  0  3  0  0  0  0  0  0
   24.3300    9.9040   13.8370 C   0  0  0  0  0  2  0  0  0  0  0  0
   23.6230   11.1170   13.5730 O   0  0  0  0  0  0  0  0  0  0  0  0
   24.4600   12.2530   13.3610 C   0  0  0  0  0  2  0  0  0  0  0  0
   23.9430   13.1480   12.2640 C   0  0  0  0  0  0  0  0  0  0  0  0
   24.4380   13.0330   10.9560 C   0  0  0  0  0  3  0  0  0  0  0  0
   22.9510   14.1020   12.5320 C   0  0  0  0  0  3  0  0  0  0  0  0
   23.9540   13.8610    9.9420 C   0  0  0  0  0  3  0  0  0  0  0  0
   22.4670   14.9280   11.5170 C   0  0  0  0  0  3  0  0  0  0  0  0
   22.9700   14.8080   10.2230 C   0  0  0  0  0  3  0  0  0  0  0  0
  1 33  1  0
  1  2  1  0
  1 30  1  1
  2  3  1  0
  3  6  1  0
  3  5  1  0
  4  2  2  0
  7  6  1  0
  8 12  1  0
  8  9  1  1
 10  8  1  0
  9  7  1  0
 10 11  1  0
 10 26  1  0
 11  7  1  1
 11 28  1  0
 13 14  1  0
 13 23  1  0
 14 16  1  0
 15 17  1  0
 15 14  2  0
 16 18  1  0
 16 25  1  0
 17 20  1  0
 18 12  1  0
 19 17  2  0
 20 21  1  0
 20 18  2  0
 21 22  2  0
 22 12  1  0
 24 13  1  0
 26 27  1  0
 28 29  1  0
 30 31  1  0
 32 30  1  0
 34 33  1  0
 35 34  2  0
 36 34  1  0
 37 35  1  0
 38 37  2  0
 38 36  1  0
 39 36  1  0
 40 39  1  0
 41 40  1  0
 42 44  1  0
 42 41  1  0
 43 42  2  0
 45 47  2  0
 45 43  1  0
 46 44  2  0
 47 46  1  0
M  END
>  <vina_score>  (4) 
-8.8539999999999992

>  <pose_id>  (4) 
4

$$$$

     RDKit          3D

 47 51  0  0  1  0  0  0  0  0999 V2000
   24.4310   12.0340   14.2750 C   0  0  0  0  0  3  0  0  0  0  0  0
   23.6150   10.7790   14.6760 C   0  0  0  0  0  0  0  0  0  0  0  0
   22.8060   10.2670   13.6790 N   0  0  0  0  0  0  0  0  0  0  0  0
   23.7280   10.2300   15.7720 O   0  0  0  0  0  0  0  0  0  0  0  0
   23.0240   10.5240   12.7210 H   0  0  0  0  0  0  0  0  0  0  0  0
   22.0850    9.0230   13.8790 C   0  0  0  0  0  2  0  0  0  0  0  0
   20.5800    9.2170   14.0790 C   0  0  0  0  0  3  0  0  0  0  0  0
   18.9790    9.7520   15.6620 C   0  0  0  0  0  3  0  0  0  0  0  0
   20.2250    9.0500   15.4650 O   0  0  0  0  0  0  0  0  0  0  0  0
   18.7460   10.6600   14.4420 C   0  0  0  0  0  3  0  0  0  0  0  0
   20.0960   10.6220   13.7370 C   0  0  0  0  0  3  0  0  0  0  0  0
   19.0390   10.4810   16.9120 N   0  0  0  0  0  0  0  0  0  0  0  0
   23.3580    9.7200   18.6640 N   0  0  0  0  0  0  0  0  0  0  0  0
   22.1100   10.2280   18.8240 C   0  0  0  0  0  0  0  0  0  0  0  0
   21.8040   10.8990   19.8930 N   0  0  0  0  0  0  0  0  0  0  0  0
   21.2820    9.9480   17.7620 N   0  0  0  0  0  0  0  0  0  0  0  0
   20.5200   11.4390   20.0370 C   0  0  0  0  0  0  0  0  0  0  0  0
   20.0550   10.4940   17.8150 C   0  0  0  0  0  0  0  0  0  0  0  0
   20.1700   12.0470   21.0410 O   0  0  0  0  0  0  0  0  0  0  0  0
   19.6220   11.2250   18.8920 C   0  0  0  0  0  0  0  0  0  0  0  0
   18.3350   11.6640   18.6730 N   0  0  0  0  0  0  0  0  0  0  0  0
   18.0260   11.2260   17.4690 C   0  0  0  0  0  3  0  0  0  0  0  0
   23.3760    8.7350   18.4300 H   0  0  0  0  0  0  0  0  0  0  0  0
   23.9080    9.8810   19.5060 H   0  0  0  0  0  0  0  0  0  0  0  0
   21.7480    9.7070   16.8940 H   0  0  0  0  0  0  0  0  0  0  0  0
   17.7560   10.1030   13.5560 O   0  0  0  0  0  0  0  0  0  0  0  0
   17.6160    9.1750   13.8200 H   0  0  0  0  0  0  0  0  0  0  0  0
   19.9820   10.8640   12.3420 O   0  0  0  0  0  0  0  0  0  0  0  0
   19.0300   11.0330   12.1830 H   0  0  0  0  0  0  0  0  0  0  0  0
   25.1540   12.5510   15.4630 N   0  0  0  0  0  0  0  0  0  0  0  0
   26.0840   12.8540   15.1570 H   0  0  0  0  0  0  0  0  0  0  0  0
   24.6690   13.3810   15.8010 H   0  0  0  0  0  0  0  0  0  0  0  0
   23.5250   13.1220   13.6660 C   0  0  0  0  0  2  0  0  0  0  0  0
   23.7440   13.2930   12.1950 C   0  0  0  0  0  0  0  0  0  0  0  0
   24.5060   12.5630   11.3040 C   0  0  0  0  0  3  0  0  0  0  0  0
   23.1850   14.2910   11.4300 N   0  0  0  0  0  0  0  0  0  0  0  0
   24.4510   13.1030   10.0490 N   0  0  0  0  0  0  0  0  0  0  0  0
   23.6600   14.1450   10.1560 C   0  0  0  0  0  3  0  0  0  0  0  0
   22.2760   15.3420   11.8520 C   0  0  0  0  0  2  0  0  0  0  0  0
   20.9270   14.9870   11.5440 O   0  0  0  0  0  0  0  0  0  0  0  0
   20.3640   15.7080   10.4480 C   0  0  0  0  0  2  0  0  0  0  0  0
   18.8570   15.7430   10.5000 C   0  0  0  0  0  0  0  0  0  0  0  0
   18.1170   16.2220    9.4090 C   0  0  0  0  0  3  0  0  0  0  0  0
   18.1740   15.2880   11.6370 C   0  0  0  0  0  3  0  0  0  0  0  0
   16.7230   16.2490    9.4590 C   0  0  0  0  0  3  0  0  0  0  0  0
   16.7800   15.3150   11.6850 C   0  0  0  0  0  3  0  0  0  0  0  0
   16.0550   15.7970   10.5970 C   0  0  0  0  0  3  0  0  0  0  0  0
  1 33  1  0
  1  2  1  0
  1 30  1  1
  2  4  2  0
  3  6  1  0
  2  3  1  0
  5  3  1  0
  7  6  1  0
  7  9  1  0
  8 12  1  0
  8  9  1  0
 10 26  1  0
 10  8  1  0
 11 28  1  0
 11  7  1  0
 11 10  1  6
 12 22  1  0
 12 18  1  0
 13 14  1  0
 13 24  1  0
 14 15  2  0
 15 17  1  0
 16 18  1  0
 16 14  1  0
 17 19  2  0
 18 20  2  0
 20 17  1  0
 21 20  1  0
 22 21  2  0
 23 13  1  0
 25 16  1  0
 26 27  1  0
 29 28  1  0
 30 32  1  0
 31 30  1  0
 34 33  1  0
 35 34  2  0
 36 39  1  0
 36 34  1  0
 37 38  2  0
 37 35  1  0
 38 36  1  0
 40 39  1  0
 41 42  1  0
 41 40  1  0
 42 44  1  0
 43 45  1  0
 43 42  2  0
 44 46  2  0
 45 47  2  0
 47 46  1  0
M  END
>  <vina_score>  (5) 
-8.7769999999999992

>  <pose_id>  (5) 
5

$$$$
