
     RDKit          3D

 24 27  0  0  1  0  0  0  0  0999 V2000
   18.1840    9.7200   17.8790 C   0  0  0  0  0  0  0  0  0  0  0  0
   16.9380   10.0810   17.7510 N   0  0  0  0  0  0  0  0  0  0  0  0
   17.0110   11.3240   17.2060 N   0  0  0  0  0  0  0  0  0  0  0  0
   18.3370   11.6900   16.9840 C   0  0  0  0  0  0  0  0  0  0  0  0
   18.7220   13.1230   16.2340 S   0  0  0  0  0  0  0  0  0  0  0  0
   19.1050   10.6280   17.4280 N   0  0  0  0  0  0  0  0  0  0  0  0
   16.1870   11.8560   16.9520 H   0  0  0  0  0  0  0  0  0  0  0  0
   18.4990    8.4260   18.5150 C   0  0  0  0  0  3  0  0  0  0  0  0
   18.4860    8.2250   20.0220 C   0  0  0  0  0  3  0  0  0  0  0  0
   17.3940    7.6300   19.1760 C   0  0  0  0  0  2  0  0  0  0  0  0
   18.2530    9.3830   20.9760 C   0  0  0  0  0  0  0  0  0  0  0  0
   17.6960   11.5080   22.7920 C   0  0  0  0  0  0  0  0  0  0  0  0
   16.6630   10.7280   22.2740 C   0  0  0  0  0  3  0  0  0  0  0  0
   19.0080   11.2190   22.4120 C   0  0  0  0  0  3  0  0  0  0  0  0
   16.9400    9.6900   21.3780 C   0  0  0  0  0  3  0  0  0  0  0  0
   19.2770   10.1800   21.5140 C   0  0  0  0  0  3  0  0  0  0  0  0
   17.4100   12.5970   23.7840 C   0  0  0  0  0  1  0  0  0  0  0  0
   20.5150   10.5000   17.4150 C   0  0  0  0  0  0  0  0  0  0  0  0
   21.2560   10.5380   18.6060 C   0  0  0  0  0  3  0  0  0  0  0  0
   21.2110   10.3140   16.2130 C   0  0  0  0  0  3  0  0  0  0  0  0
   22.6480   10.3900   18.6000 C   0  0  0  0  0  3  0  0  0  0  0  0
   22.6000   10.1650   16.2100 C   0  0  0  0  0  0  0  0  0  0  0  0
   23.3220   10.2020   17.3980 C   0  0  0  0  0  3  0  0  0  0  0  0
   23.4250    9.9340   14.7180 Cl  0  0  0  0  0  0  0  0  0  0  0  0
  2  1  2  0
  3  2  1  0
  4  3  1  0
  4  6  1  0
  5  4  2  0
  6  1  1  0
  7  3  1  0
  8  1  1  0
  8 10  1  0
  8  9  1  1
  9 11  1  0
 10  9  1  0
 11 15  2  0
 11 16  1  0
 12 17  1  0
 13 12  2  0
 14 12  1  0
 15 13  1  0
 16 14  2  0
 18  6  1  0
 18 19  1  0
 20 18  2  0
 21 19  2  0
 22 20  1  0
 22 23  2  0
 23 21  1  0
 24 22  1  0
M  END
>  <vina_score>  (1) 
-6.9029999999999996

>  <pose_id>  (1) 
1

$$$$

     RDKit          3D

 24 27  0  0  1  0  0  0  0  0999 V2000
   17.0890   12.8520   14.4170 C   0  0  0  0  0  0  0  0  0  0  0  0
   17.1230   12.6250   15.7000 N   0  0  0  0  0  0  0  0  0  0  0  0
   17.1990   13.8650   16.2500 N   0  0  0  0  0  0  0  0  0  0  0  0
   17.1830   14.8470   15.2630 C   0  0  0  0  0  0  0  0  0  0  0  0
   17.1680   16.4630   15.6530 S   0  0  0  0  0  0  0  0  0  0  0  0
   17.1090   14.1720   14.0560 N   0  0  0  0  0  0  0  0  0  0  0  0
   17.2030   14.0160   17.2520 H   0  0  0  0  0  0  0  0  0  0  0  0
   17.0750   11.7100   13.4820 C   0  0  0  0  0  3  0  0  0  0  0  0
   18.3350   10.9580   13.0810 C   0  0  0  0  0  3  0  0  0  0  0  0
   17.3380   10.3130   14.0030 C   0  0  0  0  0  2  0  0  0  0  0  0
   19.7100   11.4130   13.5390 C   0  0  0  0  0  0  0  0  0  0  0  0
   22.3000   12.1550   14.4700 C   0  0  0  0  0  0  0  0  0  0  0  0
   21.5620   11.1750   15.1320 C   0  0  0  0  0  3  0  0  0  0  0  0
   21.7500   12.7550   13.3350 C   0  0  0  0  0  3  0  0  0  0  0  0
   20.2880   10.8190   14.6760 C   0  0  0  0  0  3  0  0  0  0  0  0
   20.4750   12.3940   12.8860 C   0  0  0  0  0  3  0  0  0  0  0  0
   23.6820   12.5140   14.9300 C   0  0  0  0  0  1  0  0  0  0  0  0
   17.0570   14.7170   12.7500 C   0  0  0  0  0  0  0  0  0  0  0  0
   15.8300   15.0270   12.1430 C   0  0  0  0  0  3  0  0  0  0  0  0
   18.2310   14.9790   12.0310 C   0  0  0  0  0  3  0  0  0  0  0  0
   15.7750   15.5860   10.8620 C   0  0  0  0  0  3  0  0  0  0  0  0
   18.1730   15.5390   10.7520 C   0  0  0  0  0  0  0  0  0  0  0  0
   16.9500   15.8430   10.1640 C   0  0  0  0  0  3  0  0  0  0  0  0
   19.6320   15.8530    9.8960 Cl  0  0  0  0  0  0  0  0  0  0  0  0
  1  2  2  0
  2  3  1  0
  3  7  1  0
  4  5  2  0
  4  3  1  0
  6  1  1  0
  6  4  1  0
  8 10  1  0
  8  1  1  0
  8  9  1  6
  9 11  1  0
 10  9  1  0
 11 15  1  0
 12 17  1  0
 12 13  1  0
 14 12  2  0
 15 13  2  0
 16 14  1  0
 16 11  2  0
 18  6  1  0
 19 18  1  0
 20 18  2  0
 21 19  2  0
 22 20  1  0
 23 22  2  0
 23 21  1  0
 24 22  1  0
M  END
>  <vina_score>  (2) 
-6.6449999999999996

>  <pose_id>  (2) 
2

$$$$

     RDKit          3D

 24 27  0  0  1  0  0  0  0  0999 V2000
   19.6190   11.9260   14.1760 C   0  0  0  0  0  0  0  0  0  0  0  0
   18.9930   11.7720   13.0430 N   0  0  0  0  0  0  0  0  0  0  0  0
   19.1750   10.4590   12.7440 N   0  0  0  0  0  0  0  0  0  0  0  0
   19.9040    9.8190   13.7430 C   0  0  0  0  0  0  0  0  0  0  0  0
   20.1920    8.1830   13.6870 S   0  0  0  0  0  0  0  0  0  0  0  0
   20.1930   10.7910   14.6860 N   0  0  0  0  0  0  0  0  0  0  0  0
   18.7640   10.0270   11.9240 H   0  0  0  0  0  0  0  0  0  0  0  0
   19.6960   13.2690   14.7830 C   0  0  0  0  0  3  0  0  0  0  0  0
   20.7350   14.3000   14.3720 C   0  0  0  0  0  3  0  0  0  0  0  0
   19.2990   14.4810   13.9680 C   0  0  0  0  0  2  0  0  0  0  0  0
   21.8370   13.9650   13.3820 C   0  0  0  0  0  0  0  0  0  0  0  0
   23.8580   13.4340   11.4440 C   0  0  0  0  0  0  0  0  0  0  0  0
   22.7240   14.1700   11.1030 C   0  0  0  0  0  3  0  0  0  0  0  0
   23.9890   12.9740   12.7550 C   0  0  0  0  0  3  0  0  0  0  0  0
   21.7320   14.4230   12.0550 C   0  0  0  0  0  3  0  0  0  0  0  0
   22.9900   13.2300   13.7020 C   0  0  0  0  0  3  0  0  0  0  0  0
   24.9450   13.1930   10.4380 C   0  0  0  0  0  1  0  0  0  0  0  0
   20.9080   10.6500   15.8990 C   0  0  0  0  0  0  0  0  0  0  0  0
   22.3110   10.6150   15.9130 C   0  0  0  0  0  3  0  0  0  0  0  0
   20.2360   10.5580   17.1260 C   0  0  0  0  0  3  0  0  0  0  0  0
   23.0220   10.4970   17.1120 C   0  0  0  0  0  3  0  0  0  0  0  0
   20.9490   10.4430   18.3220 C   0  0  0  0  0  0  0  0  0  0  0  0
   22.3390   10.4120   18.3210 C   0  0  0  0  0  3  0  0  0  0  0  0
   20.0940   10.3360   19.8120 Cl  0  0  0  0  0  0  0  0  0  0  0  0
  1  6  1  0
  2  1  2  0
  3  2  1  0
  3  4  1  0
  4  6  1  0
  5  4  2  0
  6 18  1  0
  7  3  1  0
  8  1  1  0
  9 11  1  0
  8  9  1  0
 10  9  1  6
  8 10  1  0
 11 16  1  0
 12 14  1  0
 13 12  2  0
 13 15  1  0
 14 16  2  0
 15 11  2  0
 17 12  1  0
 18 19  2  0
 18 20  1  0
 19 21  1  0
 20 22  2  0
 21 23  2  0
 22 24  1  0
 23 22  1  0
M  END
>  <vina_score>  (3) 
-6.3049999999999997

>  <pose_id>  (3) 
3

$$$$

     RDKit          3D

 24 27  0  0  1  0  0  0  0  0999 V2000
   19.8800    9.8820   18.4650 C   0  0  0  0  0  0  0  0  0  0  0  0
   20.0580    8.7920   19.1580 N   0  0  0  0  0  0  0  0  0  0  0  0
   19.5710    7.8100   18.3540 N   0  0  0  0  0  0  0  0  0  0  0  0
   19.1200    8.3360   17.1460 C   0  0  0  0  0  0  0  0  0  0  0  0
   18.5620    7.3500   15.9300 S   0  0  0  0  0  0  0  0  0  0  0  0
   19.3280    9.7030   17.2250 N   0  0  0  0  0  0  0  0  0  0  0  0
   19.6070    6.8300   18.6110 H   0  0  0  0  0  0  0  0  0  0  0  0
   20.2340   11.1840   19.0630 C   0  0  0  0  0  3  0  0  0  0  0  0
   19.3260   11.9160   20.0390 C   0  0  0  0  0  3  0  0  0  0  0  0
   20.5850   11.2600   20.5340 C   0  0  0  0  0  2  0  0  0  0  0  0
   17.9390   11.3980   20.3740 C   0  0  0  0  0  0  0  0  0  0  0  0
   15.3620   10.4440   21.1310 C   0  0  0  0  0  0  0  0  0  0  0  0
   16.3970   10.5050   22.0620 C   0  0  0  0  0  3  0  0  0  0  0  0
   15.6090   10.8710   19.8250 C   0  0  0  0  0  3  0  0  0  0  0  0
   17.6620   10.9680   21.6850 C   0  0  0  0  0  3  0  0  0  0  0  0
   16.8780   11.3310   19.4550 C   0  0  0  0  0  3  0  0  0  0  0  0
   13.9920    9.9860   21.5380 C   0  0  0  0  0  1  0  0  0  0  0  0
   19.0440   10.6900   16.2500 C   0  0  0  0  0  0  0  0  0  0  0  0
   20.0700   11.2670   15.4850 C   0  0  0  0  0  3  0  0  0  0  0  0
   17.7290   11.1060   16.0060 C   0  0  0  0  0  3  0  0  0  0  0  0
   19.7930   12.2260   14.5040 C   0  0  0  0  0  3  0  0  0  0  0  0
   17.4540   12.0620   15.0250 C   0  0  0  0  0  0  0  0  0  0  0  0
   18.4800   12.6250   14.2730 C   0  0  0  0  0  3  0  0  0  0  0  0
   15.8280   12.5500   14.7480 Cl  0  0  0  0  0  0  0  0  0  0  0  0
  1  2  2  0
  3  7  1  0
  3  2  1  0
  4  6  1  0
  4  3  1  0
  5  4  2  0
  6  1  1  0
  8  1  1  0
  8  9  1  0
  8 10  1  1
  9 11  1  0
  9 10  1  0
 11 15  1  0
 12 17  1  0
 12 13  1  0
 14 12  2  0
 15 13  2  0
 16 14  1  0
 16 11  2  0
 18  6  1  0
 19 18  2  0
 20 18  1  0
 21 19  1  0
 22 20  2  0
 23 21  2  0
 23 22  1  0
 24 22  1  0
M  END
>  <vina_score>  (4) 
-6.0410000000000004

>  <pose_id>  (4) 
4

$$$$

     RDKit          3D

 24 27  0  0  1  0  0  0  0  0999 V2000
   20.5290    9.7620   13.7670 C   0  0  0  0  0  0  0  0  0  0  0  0
   19.2700    9.4420   13.8670 N   0  0  0  0  0  0  0  0  0  0  0  0
   18.6280   10.6390   13.9010 N   0  0  0  0  0  0  0  0  0  0  0  0
   19.5350   11.6900   13.7900 C   0  0  0  0  0  0  0  0  0  0  0  0
   19.0190   13.2680   13.7040 S   0  0  0  0  0  0  0  0  0  0  0  0
   20.7860   11.1050   13.7010 N   0  0  0  0  0  0  0  0  0  0  0  0
   17.6180   10.7140   13.9390 H   0  0  0  0  0  0  0  0  0  0  0  0
   21.5490    8.6960   13.7750 C   0  0  0  0  0  3  0  0  0  0  0  0
   22.2310    8.2190   15.0470 C   0  0  0  0  0  3  0  0  0  0  0  0
   21.2130    7.3450   14.3700 C   0  0  0  0  0  2  0  0  0  0  0  0
   21.9820    8.8950   16.3840 C   0  0  0  0  0  0  0  0  0  0  0  0
   21.6200   10.2400   18.8710 C   0  0  0  0  0  0  0  0  0  0  0  0
   22.8440   10.2960   18.2060 C   0  0  0  0  0  3  0  0  0  0  0  0
   20.5730    9.5240   18.2880 C   0  0  0  0  0  3  0  0  0  0  0  0
   23.0190    9.6280   16.9880 C   0  0  0  0  0  3  0  0  0  0  0  0
   20.7570    8.8580   17.0710 C   0  0  0  0  0  3  0  0  0  0  0  0
   21.4140   10.9850   20.1560 C   0  0  0  0  0  1  0  0  0  0  0  0
   22.0430   11.7430   13.5640 C   0  0  0  0  0  0  0  0  0  0  0  0
   22.8100   12.0810   14.6900 C   0  0  0  0  0  3  0  0  0  0  0  0
   22.5680   12.0380   12.2990 C   0  0  0  0  0  3  0  0  0  0  0  0
   24.0620   12.6910   14.5600 C   0  0  0  0  0  3  0  0  0  0  0  0
   23.8200   12.6460   12.1710 C   0  0  0  0  0  0  0  0  0  0  0  0
   24.5700   12.9740   13.2960 C   0  0  0  0  0  3  0  0  0  0  0  0
   24.4390   12.9930   10.6030 Cl  0  0  0  0  0  0  0  0  0  0  0  0
  1  2  2  0
  2  3  1  0
  3  7  1  0
  4  3  1  0
  5  4  2  0
  6  1  1  0
  6  4  1  0
  8  1  1  0
  8 10  1  0
  8  9  1  1
  9 11  1  0
 10  9  1  0
 11 15  2  0
 11 16  1  0
 12 17  1  0
 13 12  2  0
 14 12  1  0
 15 13  1  0
 16 14  2  0
 18  6  1  0
 18 19  1  0
 20 18  2  0
 21 19  2  0
 22 20  1  0
 22 23  2  0
 23 21  1  0
 24 22  1  0
M  END
>  <vina_score>  (5) 
-5.7709999999999999

>  <pose_id>  (5) 
5

$$$$
