
     RDKit          3D

 21 22  0  0  1  0  0  0  0  0999 V2000
   22.1600    9.6250   17.3030 C   0  0  0  0  0  0  0  0  0  0  0  0
   21.7410    8.0250   17.6170 S   0  0  0  0  0  0  0  0  0  0  0  0
   21.8560   10.7060   18.1110 N   0  0  0  0  0  0  0  0  0  0  0  0
   22.5830   11.4070   18.0990 H   0  0  0  0  0  0  0  0  0  0  0  0
   22.9300    9.9880   16.1800 N   0  0  0  0  0  0  0  0  0  0  0  0
   22.4510   10.7620   15.0030 C   0  0  0  0  0  3  0  0  0  0  0  0
   22.9320   12.2170   15.1040 C   0  0  0  0  0  2  0  0  0  0  0  0
   24.4560   12.2720   15.2770 C   0  0  0  0  0  2  0  0  0  0  0  0
   24.3990    9.9380   16.2580 C   0  0  0  0  0  2  0  0  0  0  0  0
   24.9440   11.3620   16.4060 C   0  0  0  0  0  2  0  0  0  0  0  0
   20.9770   10.5400   14.5910 C   0  0  0  0  0  2  0  0  0  0  0  0
   19.9720   11.5870   15.0560 C   0  0  0  0  0  1  0  0  0  0  0  0
   20.8910   10.8680   19.1270 C   0  0  0  0  0  0  0  0  0  0  0  0
   19.6300   11.4300   18.9240 C   0  0  0  0  0  3  0  0  0  0  0  0
   21.2670   10.5150   20.4290 C   0  0  0  0  0  3  0  0  0  0  0  0
   18.7360   11.5920   19.9920 C   0  0  0  0  0  3  0  0  0  0  0  0
   20.3790   10.6760   21.4980 C   0  0  0  0  0  3  0  0  0  0  0  0
   19.1030   11.2090   21.2840 C   0  0  0  0  0  0  0  0  0  0  0  0
   18.1880   11.3600   22.4550 C   0  0  0  0  0  0  0  0  0  0  0  0
   18.6140   11.8320   23.5070 O   0  0  0  0  0  0  0  0  0  0  0  0
   16.7510   10.9320   22.3160 C   0  0  0  0  0  1  0  0  0  0  0  0
  1  2  2  0
  1  3  1  0
  3 13  1  0
  4  3  1  0
  5  9  1  0
  5  1  1  0
  6 11  1  0
  6  7  1  0
  6  5  1  0
  7  8  1  0
  8 10  1  0
  9 10  1  0
 11 12  1  0
 13 15  2  0
 14 13  1  0
 14 16  2  0
 15 17  1  0
 16 18  1  0
 18 17  2  0
 18 19  1  0
 19 20  2  0
 21 19  1  0
M  RAD  8   6   2   7   3   8   3   9   3  10   3  11   3  12   2  14   2
M  RAD  4  15   2  16   2  17   2  21   2
M  END
>  <vina_score>  (1) 
-5.9980000000000002

>  <pose_id>  (1) 
1

$$$$

     RDKit          3D

 21 22  0  0  1  0  0  0  0  0999 V2000
   18.3660   14.9290   13.9210 C   0  0  0  0  0  0  0  0  0  0  0  0
   19.2290   15.7640   15.1010 S   0  0  0  0  0  0  0  0  0  0  0  0
   18.8950   13.9840   13.0610 N   0  0  0  0  0  0  0  0  0  0  0  0
   18.2360   13.2470   12.8520 H   0  0  0  0  0  0  0  0  0  0  0  0
   16.9780   15.0960   13.7550 N   0  0  0  0  0  0  0  0  0  0  0  0
   16.2900   15.5210   12.5060 C   0  0  0  0  0  3  0  0  0  0  0  0
   15.6600   14.3010   11.8160 C   0  0  0  0  0  2  0  0  0  0  0  0
   14.7360   13.5490   12.7830 C   0  0  0  0  0  2  0  0  0  0  0  0
   16.0510   14.4960   14.7290 C   0  0  0  0  0  2  0  0  0  0  0  0
   15.4200   13.2420   14.1170 C   0  0  0  0  0  2  0  0  0  0  0  0
   17.0590   16.5140   11.6050 C   0  0  0  0  0  2  0  0  0  0  0  0
   17.6600   15.9500   10.3230 C   0  0  0  0  0  1  0  0  0  0  0  0
   20.2250   13.7200   12.6680 C   0  0  0  0  0  0  0  0  0  0  0  0
   21.0130   14.6070   11.9330 C   0  0  0  0  0  3  0  0  0  0  0  0
   20.7420   12.4550   12.9720 C   0  0  0  0  0  3  0  0  0  0  0  0
   22.3150   14.2590   11.5480 C   0  0  0  0  0  3  0  0  0  0  0  0
   22.0410   12.1030   12.5880 C   0  0  0  0  0  3  0  0  0  0  0  0
   22.8390   13.0080   11.8800 C   0  0  0  0  0  0  0  0  0  0  0  0
   24.2200   12.5900   11.4930 C   0  0  0  0  0  0  0  0  0  0  0  0
   24.7890   11.7020   12.1240 O   0  0  0  0  0  0  0  0  0  0  0  0
   24.8870   13.2690   10.3270 C   0  0  0  0  0  1  0  0  0  0  0  0
  1  2  2  0
  3  1  1  0
  4  3  1  0
  5  1  1  0
  5  9  1  0
  6 11  1  0
  6  5  1  0
  7  6  1  0
  7  8  1  0
  8 10  1  0
 10  9  1  0
 12 11  1  0
 13 15  2  0
 13  3  1  0
 14 13  1  0
 16 18  1  0
 16 14  2  0
 17 15  1  0
 18 17  2  0
 19 18  1  0
 19 20  2  0
 21 19  1  0
M  RAD  8   6   2   7   3   8   3   9   3  10   3  11   3  12   2  14   2
M  RAD  4  15   2  16   2  17   2  21   2
M  END
>  <vina_score>  (2) 
-5.9740000000000002

>  <pose_id>  (2) 
2

$$$$

     RDKit          3D

 21 22  0  0  1  0  0  0  0  0999 V2000
   17.8860   15.0880   12.8000 C   0  0  0  0  0  0  0  0  0  0  0  0
   17.9140   15.4910   11.1660 S   0  0  0  0  0  0  0  0  0  0  0  0
   18.9830   14.6950   13.5460 N   0  0  0  0  0  0  0  0  0  0  0  0
   18.9300   15.0200   14.5010 H   0  0  0  0  0  0  0  0  0  0  0  0
   16.7100   15.1780   13.5700 N   0  0  0  0  0  0  0  0  0  0  0  0
   15.9250   14.0350   14.1080 C   0  0  0  0  0  3  0  0  0  0  0  0
   16.2240   13.8530   15.6040 C   0  0  0  0  0  2  0  0  0  0  0  0
   15.9770   15.1610   16.3680 C   0  0  0  0  0  2  0  0  0  0  0  0
   16.3660   16.4520   14.2240 C   0  0  0  0  0  2  0  0  0  0  0  0
   16.6840   16.3530   15.7190 C   0  0  0  0  0  2  0  0  0  0  0  0
   15.8970   12.7550   13.2400 C   0  0  0  0  0  2  0  0  0  0  0  0
   16.8140   11.6170   13.6710 C   0  0  0  0  0  1  0  0  0  0  0  0
   20.2420   14.1900   13.1590 C   0  0  0  0  0  0  0  0  0  0  0  0
   21.3210   14.9890   12.7780 C   0  0  0  0  0  3  0  0  0  0  0  0
   20.3760   12.7990   13.0790 C   0  0  0  0  0  3  0  0  0  0  0  0
   22.5330   14.4130   12.3720 C   0  0  0  0  0  3  0  0  0  0  0  0
   21.5820   12.2190   12.6730 C   0  0  0  0  0  3  0  0  0  0  0  0
   22.6720   13.0240   12.3240 C   0  0  0  0  0  0  0  0  0  0  0  0
   23.9410   12.3610   11.8980 C   0  0  0  0  0  0  0  0  0  0  0  0
   24.3660   11.3930   12.5240 O   0  0  0  0  0  0  0  0  0  0  0  0
   24.6750   12.8960   10.6970 C   0  0  0  0  0  1  0  0  0  0  0  0
  1  3  1  0
  1  5  1  0
  2  1  2  0
  3  4  1  0
  5  6  1  0
  5  9  1  0
  6 11  1  0
  6  7  1  0
  7  8  1  0
  9 10  1  0
 10  8  1  0
 11 12  1  0
 13  3  1  0
 14 13  1  0
 15 13  2  0
 16 14  2  0
 17 15  1  0
 18 16  1  0
 18 17  2  0
 19 18  1  0
 19 20  2  0
 21 19  1  0
M  RAD  8   6   2   7   3   8   3   9   3  10   3  11   3  12   2  14   2
M  RAD  4  15   2  16   2  17   2  21   2
M  END
>  <vina_score>  (3) 
-5.9500000000000002

>  <pose_id>  (3) 
3

$$$$

     RDKit          3D

 21 22  0  0  1  0  0  0  0  0999 V2000
   21.6390    9.7620   17.1990 C   0  0  0  0  0  0  0  0  0  0  0  0
   21.4750    8.1520   17.6650 S   0  0  0  0  0  0  0  0  0  0  0  0
   21.3880   10.8570   18.0040 N   0  0  0  0  0  0  0  0  0  0  0  0
   22.0130   11.6260   17.8080 H   0  0  0  0  0  0  0  0  0  0  0  0
   22.1160   10.1230   15.9240 N   0  0  0  0  0  0  0  0  0  0  0  0
   23.5220   10.0130   15.4510 C   0  0  0  0  0  3  0  0  0  0  0  0
   23.6740    8.7830   14.5440 C   0  0  0  0  0  2  0  0  0  0  0  0
   22.6580    8.8300   13.3950 C   0  0  0  0  0  2  0  0  0  0  0  0
   21.1640   10.3010   14.8150 C   0  0  0  0  0  2  0  0  0  0  0  0
   21.2320    9.0810   13.8920 C   0  0  0  0  0  2  0  0  0  0  0  0
   24.6220   10.2360   16.5160 C   0  0  0  0  0  2  0  0  0  0  0  0
   25.6250   11.3490   16.2400 C   0  0  0  0  0  1  0  0  0  0  0  0
   20.6390   10.9900   19.1920 C   0  0  0  0  0  0  0  0  0  0  0  0
   21.1300   10.6900   20.4640 C   0  0  0  0  0  3  0  0  0  0  0  0
   19.2970   11.3700   19.0640 C   0  0  0  0  0  3  0  0  0  0  0  0
   20.3130   10.8130   21.5970 C   0  0  0  0  0  3  0  0  0  0  0  0
   18.4780   11.4930   20.1910 C   0  0  0  0  0  3  0  0  0  0  0  0
   18.9840   11.2220   21.4670 C   0  0  0  0  0  0  0  0  0  0  0  0
   18.0730   11.3690   22.6420 C   0  0  0  0  0  0  0  0  0  0  0  0
   18.5050   11.8270   23.6970 O   0  0  0  0  0  0  0  0  0  0  0  0
   16.6320   10.9540   22.5030 C   0  0  0  0  0  1  0  0  0  0  0  0
  1  2  2  0
  1  3  1  0
  3 13  1  0
  4  3  1  0
  5  1  1  0
  6  5  1  0
  6 11  1  0
  7  6  1  0
  8 10  1  0
  8  7  1  0
  9  5  1  0
 10  9  1  0
 12 11  1  0
 13 14  1  0
 14 16  2  0
 15 13  2  0
 15 17  1  0
 17 18  2  0
 18 16  1  0
 18 19  1  0
 19 20  2  0
 21 19  1  0
M  RAD  8   6   2   7   3   8   3   9   3  10   3  11   3  12   2  14   2
M  RAD  4  15   2  16   2  17   2  21   2
M  END
>  <vina_score>  (4) 
-5.8739999999999997

>  <pose_id>  (4) 
4

$$$$

     RDKit          3D

 21 22  0  0  1  0  0  0  0  0999 V2000
   23.3270   11.3640   14.7180 C   0  0  0  0  0  0  0  0  0  0  0  0
   22.7070   10.1810   13.6930 S   0  0  0  0  0  0  0  0  0  0  0  0
   22.9810   12.7030   14.6970 N   0  0  0  0  0  0  0  0  0  0  0  0
   22.9820   13.1110   15.6210 H   0  0  0  0  0  0  0  0  0  0  0  0
   24.2360   11.0550   15.7490 N   0  0  0  0  0  0  0  0  0  0  0  0
   23.9760   10.1610   16.9080 C   0  0  0  0  0  3  0  0  0  0  0  0
   24.6400    8.7950   16.6740 C   0  0  0  0  0  2  0  0  0  0  0  0
   26.1350    8.9650   16.3740 C   0  0  0  0  0  2  0  0  0  0  0  0
   25.6720   11.3160   15.5530 C   0  0  0  0  0  2  0  0  0  0  0  0
   26.3900    9.9930   15.2690 C   0  0  0  0  0  2  0  0  0  0  0  0
   22.5280   10.1500   17.4530 C   0  0  0  0  0  2  0  0  0  0  0  0
   22.3670   10.1880   18.9680 C   0  0  0  0  0  1  0  0  0  0  0  0
   22.3750   13.4940   13.6980 C   0  0  0  0  0  0  0  0  0  0  0  0
   21.0210   13.8310   13.6830 C   0  0  0  0  0  3  0  0  0  0  0  0
   23.1770   13.8900   12.6210 C   0  0  0  0  0  3  0  0  0  0  0  0
   20.4820   14.5930   12.6370 C   0  0  0  0  0  3  0  0  0  0  0  0
   22.6440   14.6490   11.5740 C   0  0  0  0  0  3  0  0  0  0  0  0
   21.2930   15.0120   11.5800 C   0  0  0  0  0  0  0  0  0  0  0  0
   20.7690   15.8250   10.4420 C   0  0  0  0  0  0  0  0  0  0  0  0
   21.5390   16.5120    9.7740 O   0  0  0  0  0  0  0  0  0  0  0  0
   19.2960   15.7810   10.1330 C   0  0  0  0  0  1  0  0  0  0  0  0
  1  5  1  0
  2  1  2  0
  3  1  1  0
  3  4  1  0
  5  6  1  0
  6 11  1  0
  7  6  1  0
  8  7  1  0
  9  5  1  0
 10  9  1  0
 10  8  1  0
 11 12  1  0
 13  3  1  0
 14 13  1  0
 15 13  2  0
 16 14  2  0
 17 18  2  0
 17 15  1  0
 18 16  1  0
 19 18  1  0
 20 19  2  0
 21 19  1  0
M  RAD  8   6   2   7   3   8   3   9   3  10   3  11   3  12   2  14   2
M  RAD  4  15   2  16   2  17   2  21   2
M  END
>  <vina_score>  (5) 
-5.75

>  <pose_id>  (5) 
5

$$$$
