
     RDKit          3D

 18 19  0  0  1  0  0  0  0  0999 V2000
   17.6010   15.1040   14.4210 C   0  0  0  0  0  3  0  0  0  0  0  0
   17.9020   16.4850   14.0960 O   0  0  0  0  0  0  0  0  0  0  0  0
   18.5740   16.4940   13.3920 H   0  0  0  0  0  0  0  0  0  0  0  0
   18.0480   14.2710   13.1970 C   0  0  0  0  0  2  0  0  0  0  0  0
   18.1380   14.9910   11.8720 C   0  0  0  0  0  0  0  0  0  0  0  0
   16.9460   15.3880   11.2560 C   0  0  0  0  0  3  0  0  0  0  0  0
   19.3720   15.2860   11.2320 C   0  0  0  0  0  0  0  0  0  0  0  0
   17.0090   16.0240   10.0330 C   0  0  0  0  0  3  0  0  0  0  0  0
   20.6450   14.9790   11.7710 C   0  0  0  0  0  3  0  0  0  0  0  0
   19.3130   15.9400    9.9770 C   0  0  0  0  0  0  0  0  0  0  0  0
   18.1610   16.2980    9.3920 N   0  0  0  0  0  0  0  0  0  0  0  0
   21.8180   15.2890   11.0840 C   0  0  0  0  0  3  0  0  0  0  0  0
   20.4960   16.2350    9.3130 C   0  0  0  0  0  3  0  0  0  0  0  0
   21.7440   15.9150    9.8500 C   0  0  0  0  0  3  0  0  0  0  0  0
   16.1090   14.9500   14.8660 C   0  0  1  0  0  0  0  0  0  0  0  0
   15.2090   13.7930   13.8290 Cl  0  0  0  0  0  0  0  0  0  0  0  0
   16.0350   14.2730   16.5440 Cl  0  0  0  0  0  0  0  0  0  0  0  0
   15.2300   16.5150   14.8710 Cl  0  0  0  0  0  0  0  0  0  0  0  0
  1  4  1  0
  1 15  1  0
  2  1  1  0
  3  2  1  0
  5  4  1  0
  6  5  2  0
  7  9  2  0
  7  5  1  0
  8  6  1  0
 10  7  1  0
 11 10  1  0
 11  8  2  0
 12  9  1  0
 13 14  1  0
 13 10  2  0
 14 12  2  0
 15 18  1  1
 15 17  1  0
 16 15  1  0
M  RAD  8   1   2   4   3   6   2   8   2   9   2  12   2  13   2  14   2
M  END
>  <vina_score>  (1) 
-6.3570000000000002

>  <pose_id>  (1) 
1

$$$$

     RDKit          3D

 18 19  0  0  1  0  0  0  0  0999 V2000
   17.5320   15.0960   14.4060 C   0  0  0  0  0  3  0  0  0  0  0  0
   17.8100   16.4780   14.0680 O   0  0  0  0  0  0  0  0  0  0  0  0
   18.7350   16.5400   13.7700 H   0  0  0  0  0  0  0  0  0  0  0  0
   17.8790   14.2710   13.1450 C   0  0  0  0  0  2  0  0  0  0  0  0
   17.9760   15.0210   11.8380 C   0  0  0  0  0  0  0  0  0  0  0  0
   16.7860   15.4380   11.2290 C   0  0  0  0  0  3  0  0  0  0  0  0
   19.2120   15.3260   11.2070 C   0  0  0  0  0  0  0  0  0  0  0  0
   16.8550   16.1030   10.0210 C   0  0  0  0  0  3  0  0  0  0  0  0
   20.4820   15.0000   11.7410 C   0  0  0  0  0  3  0  0  0  0  0  0
   19.1580   16.0090    9.9670 C   0  0  0  0  0  0  0  0  0  0  0  0
   18.0090   16.3870    9.3890 N   0  0  0  0  0  0  0  0  0  0  0  0
   21.6580   15.3200   11.0630 C   0  0  0  0  0  3  0  0  0  0  0  0
   20.3440   16.3140    9.3130 C   0  0  0  0  0  3  0  0  0  0  0  0
   21.5890   15.9760    9.8440 C   0  0  0  0  0  3  0  0  0  0  0  0
   16.0790   14.9420   14.9650 C   0  0  1  0  0  0  0  0  0  0  0  0
   15.2150   16.5140   15.0520 Cl  0  0  0  0  0  0  0  0  0  0  0  0
   15.1010   13.8990   13.8540 Cl  0  0  0  0  0  0  0  0  0  0  0  0
   16.0480   14.1840   16.5920 Cl  0  0  0  0  0  0  0  0  0  0  0  0
  1  4  1  0
  1 15  1  0
  2  1  1  0
  3  2  1  0
  5  4  1  0
  6  5  2  0
  7  9  2  0
  7  5  1  0
  8  6  1  0
 10  7  1  0
 11 10  1  0
 11  8  2  0
 12  9  1  0
 13 14  1  0
 13 10  2  0
 14 12  2  0
 15 16  1  1
 15 18  1  0
 17 15  1  0
M  RAD  8   1   2   4   3   6   2   8   2   9   2  12   2  13   2  14   2
M  END
>  <vina_score>  (2) 
-6.3029999999999999

>  <pose_id>  (2) 
2

$$$$

     RDKit          3D

 18 19  0  0  1  0  0  0  0  0999 V2000
   20.5500   10.9390   19.9780 C   0  0  0  0  0  3  0  0  0  0  0  0
   21.5660   11.7630   20.6040 O   0  0  0  0  0  0  0  0  0  0  0  0
   21.1250   12.5080   21.0490 H   0  0  0  0  0  0  0  0  0  0  0  0
   19.9530   10.0680   21.1090 C   0  0  0  0  0  2  0  0  0  0  0  0
   18.6740   10.5540   21.7480 C   0  0  0  0  0  0  0  0  0  0  0  0
   18.7640   11.5590   22.7190 C   0  0  0  0  0  3  0  0  0  0  0  0
   17.3920   10.0450   21.4060 C   0  0  0  0  0  0  0  0  0  0  0  0
   17.6080   11.9970   23.3320 C   0  0  0  0  0  3  0  0  0  0  0  0
   17.1630    9.0640   20.4120 C   0  0  0  0  0  3  0  0  0  0  0  0
   16.2770   10.5680   22.1050 C   0  0  0  0  0  0  0  0  0  0  0  0
   16.3830   11.5200   23.0450 N   0  0  0  0  0  0  0  0  0  0  0  0
   15.8780    8.5990   20.1330 C   0  0  0  0  0  3  0  0  0  0  0  0
   15.0090   10.0880   21.8080 C   0  0  0  0  0  3  0  0  0  0  0  0
   14.7980    9.1100   20.8350 C   0  0  0  0  0  3  0  0  0  0  0  0
   21.1340   10.1780   18.7420 C   0  0  1  0  0  0  0  0  0  0  0  0
   22.9270   10.0920   18.7850 Cl  0  0  0  0  0  0  0  0  0  0  0  0
   20.5550    8.4630   18.7480 Cl  0  0  0  0  0  0  0  0  0  0  0  0
   20.6340   10.9160   17.1850 Cl  0  0  0  0  0  0  0  0  0  0  0  0
  1  2  1  0
  1  4  1  0
  2  3  1  0
  4  5  1  0
  5  6  2  0
  6  8  1  0
  7  5  1  0
  7 10  1  0
  9  7  2  0
 10 11  1  0
 11  8  2  0
 12  9  1  0
 12 14  2  0
 13 10  2  0
 14 13  1  0
 15 17  1  6
 15 16  1  0
 15  1  1  0
 18 15  1  0
M  RAD  8   1   2   4   3   6   2   8   2   9   2  12   2  13   2  14   2
M  END
>  <vina_score>  (3) 
-5.9960000000000004

>  <pose_id>  (3) 
3

$$$$

     RDKit          3D

 18 19  0  0  1  0  0  0  0  0999 V2000
   22.7140   13.2320   13.5340 C   0  0  0  0  0  3  0  0  0  0  0  0
   22.9650   13.1950   14.9620 O   0  0  0  0  0  0  0  0  0  0  0  0
   22.8140   12.2860   15.2760 H   0  0  0  0  0  0  0  0  0  0  0  0
   21.5510   14.2320   13.3330 C   0  0  0  0  0  2  0  0  0  0  0  0
   21.3950   14.8360   11.9580 C   0  0  0  0  0  0  0  0  0  0  0  0
   22.5520   15.0750   11.2070 C   0  0  0  0  0  3  0  0  0  0  0  0
   20.1330   15.1640   11.3930 C   0  0  0  0  0  0  0  0  0  0  0  0
   22.4290   15.6490    9.9590 C   0  0  0  0  0  3  0  0  0  0  0  0
   18.8890   14.9310   12.0280 C   0  0  0  0  0  3  0  0  0  0  0  0
   20.1300   15.7530   10.1050 C   0  0  0  0  0  0  0  0  0  0  0  0
   21.2500   15.9910    9.4060 N   0  0  0  0  0  0  0  0  0  0  0  0
   17.6850   15.2880   11.4210 C   0  0  0  0  0  3  0  0  0  0  0  0
   18.9180   16.1000    9.5240 C   0  0  0  0  0  3  0  0  0  0  0  0
   17.6990   15.8770   10.1670 C   0  0  0  0  0  3  0  0  0  0  0  0
   22.5020   11.7890   12.9680 C   0  0  1  0  0  0  0  0  0  0  0  0
   23.3130   11.5570   11.3830 Cl  0  0  0  0  0  0  0  0  0  0  0  0
   23.2450   10.5750   14.0880 Cl  0  0  0  0  0  0  0  0  0  0  0  0
   20.7660   11.3720   12.7880 Cl  0  0  0  0  0  0  0  0  0  0  0  0
  1  4  1  0
  1  2  1  0
  2  3  1  0
  5  4  1  0
  6  5  2  0
  7  5  1  0
  7  9  2  0
  8  6  1  0
 10  7  1  0
 11  8  2  0
 11 10  1  0
 12  9  1  0
 13 10  2  0
 13 14  1  0
 14 12  2  0
 15  1  1  0
 15 17  1  1
 16 15  1  0
 18 15  1  0
M  RAD  8   1   2   4   3   6   2   8   2   9   2  12   2  13   2  14   2
M  END
>  <vina_score>  (4) 
-5.9939999999999998

>  <pose_id>  (4) 
4

$$$$

     RDKit          3D

 18 19  0  0  1  0  0  0  0  0999 V2000
   17.2550   15.0450   14.3670 C   0  0  0  0  0  3  0  0  0  0  0  0
   17.0800   16.4360   14.0000 O   0  0  0  0  0  0  0  0  0  0  0  0
   17.7480   16.9650   14.4720 H   0  0  0  0  0  0  0  0  0  0  0  0
   17.7650   14.3300   13.0930 C   0  0  0  0  0  2  0  0  0  0  0  0
   19.2400   14.4330   12.7910 C   0  0  0  0  0  0  0  0  0  0  0  0
   20.1420   13.9080   13.7240 C   0  0  0  0  0  3  0  0  0  0  0  0
   19.7500   15.0310   11.6060 C   0  0  0  0  0  0  0  0  0  0  0  0
   21.4950   14.0170   13.4740 C   0  0  0  0  0  3  0  0  0  0  0  0
   18.9440   15.5570   10.5680 C   0  0  0  0  0  3  0  0  0  0  0  0
   21.1570   15.0890   11.4610 C   0  0  0  0  0  0  0  0  0  0  0  0
   22.0090   14.5950   12.3730 N   0  0  0  0  0  0  0  0  0  0  0  0
   19.5100   16.1400    9.4340 C   0  0  0  0  0  3  0  0  0  0  0  0
   21.6950   15.6760   10.3230 C   0  0  0  0  0  3  0  0  0  0  0  0
   20.8890   16.2030    9.3130 C   0  0  0  0  0  3  0  0  0  0  0  0
   15.9530   14.4720   15.0180 C   0  0  1  0  0  0  0  0  0  0  0  0
   14.7810   15.7650   15.4400 Cl  0  0  0  0  0  0  0  0  0  0  0  0
   15.1000   13.3940   13.8400 Cl  0  0  0  0  0  0  0  0  0  0  0  0
   16.2920   13.5070   16.4930 Cl  0  0  0  0  0  0  0  0  0  0  0  0
  1  4  1  0
  1 15  1  0
  2  1  1  0
  2  3  1  0
  5  4  1  0
  5  6  2  0
  7  5  1  0
  8  6  1  0
  9  7  2  0
 10  7  1  0
 10 11  1  0
 11  8  2  0
 12  9  1  0
 13 10  2  0
 14 12  2  0
 14 13  1  0
 15 16  1  1
 15 18  1  0
 17 15  1  0
M  RAD  8   1   2   4   3   6   2   8   2   9   2  12   2  13   2  14   2
M  END
>  <vina_score>  (5) 
-5.9669999999999996

>  <pose_id>  (5) 
5

$$$$
