
     RDKit          3D

 23 26  0  0  0  0  0  0  0  0999 V2000
   24.2790   12.1620   12.4470 C   0  0  0  0  0  0  0  0  0  0  0  0
   24.9950   11.3820   11.5750 N   0  0  0  0  0  0  0  0  0  0  0  0
   25.1560   11.9260   10.3580 N   0  0  0  0  0  0  0  0  0  0  0  0
   24.5030   13.0850   10.4500 C   0  0  0  0  0  3  0  0  0  0  0  0
   23.9410   13.3010   11.7310 C   0  0  0  0  0  0  0  0  0  0  0  0
   25.4110   10.4750   11.7550 H   0  0  0  0  0  0  0  0  0  0  0  0
   23.9990   11.7480   13.8140 C   0  0  0  0  0  0  0  0  0  0  0  0
   23.4560   10.9540   16.4450 C   0  0  0  0  0  3  0  0  0  0  0  0
   22.5090   10.7440   15.4440 C   0  0  0  0  0  3  0  0  0  0  0  0
   24.6730   11.5590   16.1370 C   0  0  0  0  0  3  0  0  0  0  0  0
   22.7790   11.1380   14.1330 C   0  0  0  0  0  3  0  0  0  0  0  0
   24.9440   11.9540   14.8250 C   0  0  0  0  0  3  0  0  0  0  0  0
   23.1580   14.4940   12.1690 C   0  0  0  0  0  2  0  0  0  0  0  0
   21.9800   14.6850   11.3080 N   0  0  0  0  0  0  0  0  0  0  0  0
   22.1590   15.8770   10.4640 C   0  0  0  0  0  2  0  0  0  0  0  0
   20.7520   14.8370   12.1180 C   0  0  0  0  0  2  0  0  0  0  0  0
   21.0330   15.9860    9.4290 C   0  0  0  0  0  2  0  0  0  0  0  0
   19.5350   15.2660   11.3200 C   0  0  0  0  0  0  0  0  0  0  0  0
   19.6690   15.8570   10.0520 C   0  0  0  0  0  0  0  0  0  0  0  0
   18.2560   15.1300   11.8800 C   0  0  0  0  0  3  0  0  0  0  0  0
   18.5290   16.2680    9.3500 C   0  0  0  0  0  3  0  0  0  0  0  0
   17.1260   15.5530   11.1790 C   0  0  0  0  0  3  0  0  0  0  0  0
   17.2620   16.1180    9.9140 C   0  0  0  0  0  3  0  0  0  0  0  0
  1  7  1  0
  2  6  1  0
  2  1  1  0
  3  4  2  0
  3  2  1  0
  4  5  1  0
  5 13  1  0
  5  1  2  0
  7 11  2  0
  7 12  1  0
  9  8  2  0
 10  8  1  0
 11  9  1  0
 12 10  2  0
 14 16  1  0
 14 13  1  0
 15 14  1  0
 17 19  1  0
 17 15  1  0
 18 20  1  0
 18 16  1  0
 19 18  2  0
 21 23  2  0
 21 19  1  0
 22 20  2  0
 23 22  1  0
M  END
>  <vina_score>  (1) 
-8.2949999999999999

>  <pose_id>  (1) 
1

$$$$

     RDKit          3D

 23 26  0  0  0  0  0  0  0  0999 V2000
   15.7830   14.9530   12.4770 C   0  0  0  0  0  0  0  0  0  0  0  0
   14.7060   14.8120   11.6390 N   0  0  0  0  0  0  0  0  0  0  0  0
   14.8710   15.3800   10.4340 N   0  0  0  0  0  0  0  0  0  0  0  0
   16.0880   15.9190   10.5110 C   0  0  0  0  0  3  0  0  0  0  0  0
   16.7180   15.6800   11.7550 C   0  0  0  0  0  0  0  0  0  0  0  0
   13.8350   14.3300   11.8280 H   0  0  0  0  0  0  0  0  0  0  0  0
   15.7980   14.4060   13.8250 C   0  0  0  0  0  0  0  0  0  0  0  0
   15.8330   13.3550   16.4220 C   0  0  0  0  0  3  0  0  0  0  0  0
   15.7570   14.7330   16.2290 C   0  0  0  0  0  3  0  0  0  0  0  0
   15.8910   12.4990   15.3230 C   0  0  0  0  0  3  0  0  0  0  0  0
   15.7390   15.2570   14.9350 C   0  0  0  0  0  3  0  0  0  0  0  0
   15.8740   13.0230   14.0290 C   0  0  0  0  0  3  0  0  0  0  0  0
   18.0800   16.1350   12.1640 C   0  0  0  0  0  2  0  0  0  0  0  0
   19.0480   15.0310   12.0610 N   0  0  0  0  0  0  0  0  0  0  0  0
   19.3000   14.4560   13.3920 C   0  0  0  0  0  2  0  0  0  0  0  0
   20.3240   15.4970   11.4780 C   0  0  0  0  0  2  0  0  0  0  0  0
   20.1550   13.1870   13.2840 C   0  0  0  0  0  2  0  0  0  0  0  0
   21.4460   14.4790   11.5510 C   0  0  0  0  0  0  0  0  0  0  0  0
   21.3880   13.3970   12.4460 C   0  0  0  0  0  0  0  0  0  0  0  0
   22.5900   14.6510   10.7580 C   0  0  0  0  0  3  0  0  0  0  0  0
   22.4510   12.4870   12.5110 C   0  0  0  0  0  3  0  0  0  0  0  0
   23.6500   13.7470   10.8370 C   0  0  0  0  0  3  0  0  0  0  0  0
   23.5790   12.6640   11.7100 C   0  0  0  0  0  3  0  0  0  0  0  0
  1  7  1  0
  2  6  1  0
  2  1  1  0
  3  4  2  0
  3  2  1  0
  4  5  1  0
  5 13  1  0
  5  1  2  0
  7 12  2  0
  7 11  1  0
  9  8  1  0
 10  8  2  0
 11  9  2  0
 12 10  1  0
 14 13  1  0
 14 15  1  0
 16 18  1  0
 16 14  1  0
 17 15  1  0
 18 19  1  0
 19 21  2  0
 19 17  1  0
 20 22  1  0
 20 18  2  0
 22 23  2  0
 23 21  1  0
M  END
>  <vina_score>  (2) 
-7.3150000000000004

>  <pose_id>  (2) 
2

$$$$

     RDKit          3D

 23 26  0  0  0  0  0  0  0  0999 V2000
   17.9630   15.5130   13.2210 C   0  0  0  0  0  0  0  0  0  0  0  0
   18.2440   16.5010   14.1310 N   0  0  0  0  0  0  0  0  0  0  0  0
   18.6970   16.0490   15.3100 N   0  0  0  0  0  0  0  0  0  0  0  0
   18.6870   14.7240   15.1570 C   0  0  0  0  0  3  0  0  0  0  0  0
   18.2510   14.3220   13.8720 C   0  0  0  0  0  0  0  0  0  0  0  0
   18.1570   17.5030   14.0000 H   0  0  0  0  0  0  0  0  0  0  0  0
   17.4640   15.8010   11.8850 C   0  0  0  0  0  0  0  0  0  0  0  0
   16.5040   16.3600    9.3130 C   0  0  0  0  0  3  0  0  0  0  0  0
   17.8560   16.0840    9.5080 C   0  0  0  0  0  3  0  0  0  0  0  0
   15.6290   16.3580   10.3970 C   0  0  0  0  0  3  0  0  0  0  0  0
   18.3350   15.8040   10.7890 C   0  0  0  0  0  3  0  0  0  0  0  0
   16.1070   16.0790   11.6800 C   0  0  0  0  0  3  0  0  0  0  0  0
   18.1310   12.9200   13.3710 C   0  0  0  0  0  2  0  0  0  0  0  0
   19.4410   12.4140   12.9300 N   0  0  0  0  0  0  0  0  0  0  0  0
   20.0330   11.5670   13.9780 C   0  0  0  0  0  2  0  0  0  0  0  0
   20.3620   13.5280   12.6200 C   0  0  0  0  0  2  0  0  0  0  0  0
   21.3040   10.8780   13.4680 C   0  0  0  0  0  2  0  0  0  0  0  0
   21.7970   13.0960   12.3820 C   0  0  0  0  0  0  0  0  0  0  0  0
   22.2620   11.8470   12.8260 C   0  0  0  0  0  0  0  0  0  0  0  0
   22.6940   13.9800   11.7650 C   0  0  0  0  0  3  0  0  0  0  0  0
   23.5990   11.4850   12.6170 C   0  0  0  0  0  3  0  0  0  0  0  0
   24.0270   13.6180   11.5700 C   0  0  0  0  0  3  0  0  0  0  0  0
   24.4780   12.3700   11.9920 C   0  0  0  0  0  3  0  0  0  0  0  0
  1  5  2  0
  1  2  1  0
  2  3  1  0
  4  3  2  0
  5  4  1  0
  6  2  1  0
  7  1  1  0
  8  9  2  0
  8 10  1  0
  9 11  1  0
 10 12  2  0
 11  7  2  0
 12  7  1  0
 13  5  1  0
 14 13  1  0
 14 15  1  0
 16 14  1  0
 17 15  1  0
 18 16  1  0
 18 19  1  0
 19 17  1  0
 20 18  2  0
 21 19  2  0
 22 20  1  0
 22 23  2  0
 23 21  1  0
M  END
>  <vina_score>  (3) 
-7.2770000000000001

>  <pose_id>  (3) 
3

$$$$

     RDKit          3D

 23 26  0  0  0  0  0  0  0  0999 V2000
   17.9560   14.8200   13.3550 C   0  0  0  0  0  0  0  0  0  0  0  0
   17.2230   15.4740   14.3120 N   0  0  0  0  0  0  0  0  0  0  0  0
   17.2850   14.9130   15.5300 N   0  0  0  0  0  0  0  0  0  0  0  0
   18.0690   13.8510   15.3400 C   0  0  0  0  0  3  0  0  0  0  0  0
   18.5330   13.7400   14.0080 C   0  0  0  0  0  0  0  0  0  0  0  0
   16.6700   16.3160   14.1980 H   0  0  0  0  0  0  0  0  0  0  0  0
   18.0190   15.2740   11.9740 C   0  0  0  0  0  0  0  0  0  0  0  0
   18.1370   16.1450    9.3140 C   0  0  0  0  0  3  0  0  0  0  0  0
   16.9050   16.0300    9.9560 C   0  0  0  0  0  3  0  0  0  0  0  0
   19.3100   15.8260    9.9950 C   0  0  0  0  0  3  0  0  0  0  0  0
   16.8460   15.5970   11.2820 C   0  0  0  0  0  3  0  0  0  0  0  0
   19.2510   15.3920   11.3210 C   0  0  0  0  0  3  0  0  0  0  0  0
   19.4300   12.6770   13.4640 C   0  0  0  0  0  2  0  0  0  0  0  0
   20.8010   12.8500   13.9690 N   0  0  0  0  0  0  0  0  0  0  0  0
   21.7340   13.0300   12.8450 C   0  0  0  0  0  2  0  0  0  0  0  0
   21.2210   11.6810   14.7720 C   0  0  0  0  0  2  0  0  0  0  0  0
   23.1330   13.4010   13.3520 C   0  0  0  0  0  2  0  0  0  0  0  0
   22.6950   11.6770   15.1340 C   0  0  0  0  0  0  0  0  0  0  0  0
   23.6180   12.4650   14.4260 C   0  0  0  0  0  0  0  0  0  0  0  0
   23.1570   10.8260   16.1490 C   0  0  0  0  0  3  0  0  0  0  0  0
   24.9770   12.4200   14.7640 C   0  0  0  0  0  3  0  0  0  0  0  0
   24.5130   10.7780   16.4720 C   0  0  0  0  0  3  0  0  0  0  0  0
   25.4220   11.5770   15.7830 C   0  0  0  0  0  3  0  0  0  0  0  0
  1  5  2  0
  1  2  1  0
  2  3  1  0
  4  3  2  0
  5  4  1  0
  6  2  1  0
  7  1  1  0
  8  9  2  0
  8 10  1  0
  9 11  1  0
 10 12  2  0
 11  7  2  0
 12  7  1  0
 13 14  1  0
 13  5  1  0
 14 16  1  0
 15 17  1  0
 15 14  1  0
 16 18  1  0
 17 19  1  0
 18 20  1  0
 19 21  1  0
 19 18  2  0
 20 22  2  0
 21 23  2  0
 23 22  1  0
M  END
>  <vina_score>  (4) 
-7.141

>  <pose_id>  (4) 
4

$$$$

     RDKit          3D

 23 26  0  0  0  0  0  0  0  0999 V2000
   17.2270   12.5350   14.5850 C   0  0  0  0  0  0  0  0  0  0  0  0
   16.5940   11.3860   14.1850 N   0  0  0  0  0  0  0  0  0  0  0  0
   17.4260   10.4040   13.8040 N   0  0  0  0  0  0  0  0  0  0  0  0
   18.6340   10.9520   13.9470 C   0  0  0  0  0  3  0  0  0  0  0  0
   18.5820   12.2770   14.4420 C   0  0  0  0  0  0  0  0  0  0  0  0
   15.5960   11.2060   14.1610 H   0  0  0  0  0  0  0  0  0  0  0  0
   16.4980   13.7110   15.0350 C   0  0  0  0  0  0  0  0  0  0  0  0
   15.0900   15.9720   15.9040 C   0  0  0  0  0  3  0  0  0  0  0  0
   15.3990   14.9550   16.8050 C   0  0  0  0  0  3  0  0  0  0  0  0
   15.4810   15.8650   14.5710 C   0  0  0  0  0  3  0  0  0  0  0  0
   16.1010   13.8280   16.3730 C   0  0  0  0  0  3  0  0  0  0  0  0
   16.1830   14.7380   14.1380 C   0  0  0  0  0  3  0  0  0  0  0  0
   19.7470   13.1680   14.7230 C   0  0  0  0  0  2  0  0  0  0  0  0
   20.4230   13.5470   13.4720 N   0  0  0  0  0  0  0  0  0  0  0  0
   21.7100   14.1950   13.7700 C   0  0  0  0  0  2  0  0  0  0  0  0
   19.5830   14.4660   12.6740 C   0  0  0  0  0  2  0  0  0  0  0  0
   22.5140   14.4260   12.4850 C   0  0  0  0  0  2  0  0  0  0  0  0
   20.2980   15.0840   11.4870 C   0  0  0  0  0  0  0  0  0  0  0  0
   21.7010   15.1060   11.4160 C   0  0  0  0  0  0  0  0  0  0  0  0
   19.5510   15.7000   10.4720 C   0  0  0  0  0  3  0  0  0  0  0  0
   22.3350   15.7070   10.3200 C   0  0  0  0  0  3  0  0  0  0  0  0
   20.1900   16.3070    9.3900 C   0  0  0  0  0  3  0  0  0  0  0  0
   21.5800   16.3070    9.3130 C   0  0  0  0  0  3  0  0  0  0  0  0
  1  7  1  0
  2  1  1  0
  3  4  2  0
  3  2  1  0
  4  5  1  0
  5  1  2  0
  5 13  1  0
  6  2  1  0
  7 11  1  0
  8  9  1  0
 10  8  2  0
 11  9  2  0
 12 10  1  0
 12  7  2  0
 14 15  1  0
 14 13  1  0
 16 14  1  0
 17 15  1  0
 18 16  1  0
 19 18  1  0
 19 17  1  0
 20 18  2  0
 21 19  2  0
 22 20  1  0
 23 22  2  0
 23 21  1  0
M  END
>  <vina_score>  (5) 
-7.085

>  <pose_id>  (5) 
5

$$$$
