
     RDKit          3D

 20 22  0  0  0  0  0  0  0  0999 V2000
   16.1640   14.4280   12.7530 C   0  0  0  0  0  2  0  0  0  0  0  0
   17.5150   14.7430   12.1750 C   0  0  0  0  0  0  0  0  0  0  0  0
   21.2900   15.6020   10.5740 C   0  0  0  0  0  0  0  0  0  0  0  0
   22.4510   15.1290   11.2090 C   0  0  0  0  0  3  0  0  0  0  0  0
   20.0220   15.3210   11.0960 C   0  0  0  0  0  0  0  0  0  0  0  0
   22.3580   14.3700   12.3700 C   0  0  0  0  0  3  0  0  0  0  0  0
   18.9150   15.7750   10.4820 N   0  0  0  0  0  0  0  0  0  0  0  0
   19.9420   14.5510   12.2760 C   0  0  0  0  0  0  0  0  0  0  0  0
   21.1060   14.0800   12.9040 C   0  0  0  0  0  3  0  0  0  0  0  0
   17.7080   15.4840   11.0180 C   0  0  0  0  0  0  0  0  0  0  0  0
   18.6740   14.2670   12.8010 C   0  0  0  0  0  3  0  0  0  0  0  0
   21.4170   16.4220    9.3170 C   0  0  0  0  0  1  0  0  0  0  0  0
   16.4150   16.1600   10.1030 Cl  0  0  0  0  0  0  0  0  0  0  0  0
   15.5280   15.5410   13.4580 N   0  0  0  0  0  0  0  0  0  0  0  0
   14.7720   15.9390   12.9050 H   0  0  0  0  0  0  0  0  0  0  0  0
   15.0680   15.2220   14.8040 C   0  0  0  0  0  3  0  0  0  0  0  0
   15.1000   16.3810   15.8010 C   0  0  0  0  0  2  0  0  0  0  0  0
   16.0250   14.2280   15.4660 C   0  0  0  0  0  2  0  0  0  0  0  0
   15.1060   15.7040   17.1700 C   0  0  0  0  0  2  0  0  0  0  0  0
   15.6530   14.2940   16.9430 C   0  0  0  0  0  2  0  0  0  0  0  0
  1 14  1  0
  2  1  1  0
  2 11  2  0
  3  5  2  0
  3  4  1  0
  4  6  2  0
  5  8  1  0
  6  9  1  0
  7 10  2  0
  7  5  1  0
  8 11  1  0
  8  9  2  0
 10  2  1  0
 12  3  1  0
 13 10  1  0
 14 16  1  0
 15 14  1  0
 16 18  1  0
 16 17  1  0
 17 19  1  0
 18 20  1  0
 20 19  1  0
M  RAD  8   1   3   4   2   6   2   9   2  11   2  12   2  16   2  17   3
M  RAD  3  18   3  19   3  20   3
M  END
>  <vina_score>  (1) 
-6.8789999999999996

>  <pose_id>  (1) 
1

$$$$

     RDKit          3D

 20 22  0  0  0  0  0  0  0  0999 V2000
   21.3660   14.2370   13.2360 C   0  0  0  0  0  2  0  0  0  0  0  0
   20.0970   14.6180   12.5260 C   0  0  0  0  0  0  0  0  0  0  0  0
   16.5470   15.6730   10.5670 C   0  0  0  0  0  0  0  0  0  0  0  0
   15.3070   15.2500   11.0740 C   0  0  0  0  0  3  0  0  0  0  0  0
   17.7420   15.3300   11.2130 C   0  0  0  0  0  0  0  0  0  0  0  0
   15.2460   14.4800   12.2310 C   0  0  0  0  0  3  0  0  0  0  0  0
   18.9250   15.7420   10.7230 N   0  0  0  0  0  0  0  0  0  0  0  0
   17.6660   14.5480   12.3840 C   0  0  0  0  0  0  0  0  0  0  0  0
   16.4230   14.1300   12.8860 C   0  0  0  0  0  3  0  0  0  0  0  0
   20.0560   15.3880   11.3730 C   0  0  0  0  0  0  0  0  0  0  0  0
   18.8590   14.2030   13.0330 C   0  0  0  0  0  3  0  0  0  0  0  0
   16.5870   16.5070    9.3130 C   0  0  0  0  0  1  0  0  0  0  0  0
   21.4660   15.9930   10.5920 Cl  0  0  0  0  0  0  0  0  0  0  0  0
   21.6880   12.8110   13.1890 N   0  0  0  0  0  0  0  0  0  0  0  0
   20.8430   12.2460   13.2340 H   0  0  0  0  0  0  0  0  0  0  0  0
   22.5150   12.4130   12.0570 C   0  0  0  0  0  3  0  0  0  0  0  0
   23.3550   11.1530   12.2690 C   0  0  0  0  0  2  0  0  0  0  0  0
   23.6020   13.4610   11.8040 C   0  0  0  0  0  2  0  0  0  0  0  0
   24.4680   11.2600   11.2290 C   0  0  0  0  0  2  0  0  0  0  0  0
   24.5890   12.7460   10.8900 C   0  0  0  0  0  2  0  0  0  0  0  0
  2 11  2  0
  2  1  1  0
  3  4  1  0
  3  5  2  0
  4  6  2  0
  5  8  1  0
  6  9  1  0
  7  5  1  0
  7 10  2  0
  8  9  2  0
  8 11  1  0
 10  2  1  0
 12  3  1  0
 13 10  1  0
 14 15  1  0
 14  1  1  0
 16 17  1  0
 16 14  1  0
 18 16  1  0
 19 17  1  0
 20 19  1  0
 20 18  1  0
M  RAD  8   1   3   4   2   6   2   9   2  11   2  12   2  16   2  17   3
M  RAD  3  18   3  19   3  20   3
M  END
>  <vina_score>  (2) 
-6.7590000000000003

>  <pose_id>  (2) 
2

$$$$

     RDKit          3D

 20 22  0  0  0  0  0  0  0  0999 V2000
   21.5090   13.8630   13.6940 C   0  0  0  0  0  2  0  0  0  0  0  0
   20.2360   14.2510   12.9950 C   0  0  0  0  0  0  0  0  0  0  0  0
   16.6990   15.3350   11.0290 C   0  0  0  0  0  0  0  0  0  0  0  0
   16.7520   16.0900    9.8450 C   0  0  0  0  0  3  0  0  0  0  0  0
   17.8730   14.9630   11.6950 C   0  0  0  0  0  0  0  0  0  0  0  0
   17.9760   16.4800    9.3130 C   0  0  0  0  0  3  0  0  0  0  0  0
   17.8150   14.2380   12.8270 N   0  0  0  0  0  0  0  0  0  0  0  0
   19.1080   15.3670   11.1470 C   0  0  0  0  0  0  0  0  0  0  0  0
   19.1530   16.1200    9.9620 C   0  0  0  0  0  3  0  0  0  0  0  0
   18.9700   13.9010   13.4430 C   0  0  0  0  0  0  0  0  0  0  0  0
   20.2850   14.9970   11.8110 C   0  0  0  0  0  3  0  0  0  0  0  0
   15.3610   14.9220   11.5830 C   0  0  0  0  0  1  0  0  0  0  0  0
   18.6950   12.9890   14.8770 Cl  0  0  0  0  0  0  0  0  0  0  0  0
   21.9090   12.4690   13.5050 N   0  0  0  0  0  0  0  0  0  0  0  0
   21.1100   11.8450   13.5960 H   0  0  0  0  0  0  0  0  0  0  0  0
   22.6280   12.2080   12.2640 C   0  0  0  0  0  3  0  0  0  0  0  0
   23.5410   10.9810   12.2810 C   0  0  0  0  0  2  0  0  0  0  0  0
   23.6340   13.3290   11.9920 C   0  0  0  0  0  2  0  0  0  0  0  0
   24.5320   11.2310   11.1450 C   0  0  0  0  0  2  0  0  0  0  0  0
   24.5500   12.7440   10.9230 C   0  0  0  0  0  2  0  0  0  0  0  0
  2 10  1  0
  2  1  1  0
  3 12  1  0
  3  5  2  0
  4  3  1  0
  5  7  1  0
  6  4  2  0
  6  9  1  0
  7 10  2  0
  8  5  1  0
  8 11  1  0
  9  8  2  0
 10 13  1  0
 11  2  2  0
 14 15  1  0
 14  1  1  0
 16 17  1  0
 16 14  1  0
 18 16  1  0
 19 17  1  0
 20 19  1  0
 20 18  1  0
M  RAD  8   1   3   4   2   6   2   9   2  11   2  12   2  16   2  17   3
M  RAD  3  18   3  19   3  20   3
M  END
>  <vina_score>  (3) 
-6.7190000000000003

>  <pose_id>  (3) 
3

$$$$

     RDKit          3D

 20 22  0  0  0  0  0  0  0  0999 V2000
   21.6060   12.1210   14.4020 C   0  0  0  0  0  2  0  0  0  0  0  0
   21.0030   13.0630   13.3970 C   0  0  0  0  0  0  0  0  0  0  0  0
   19.3420   15.6880   10.5860 C   0  0  0  0  0  0  0  0  0  0  0  0
   20.1750   16.5120    9.8110 C   0  0  0  0  0  3  0  0  0  0  0  0
   19.8830   14.8040   11.5280 C   0  0  0  0  0  0  0  0  0  0  0  0
   21.5560   16.4630    9.9670 C   0  0  0  0  0  3  0  0  0  0  0  0
   19.0800   14.0160   12.2640 N   0  0  0  0  0  0  0  0  0  0  0  0
   21.2860   14.7640   11.6770 C   0  0  0  0  0  0  0  0  0  0  0  0
   22.1110   15.5910   10.8980 C   0  0  0  0  0  3  0  0  0  0  0  0
   19.6400   13.1770   13.1640 C   0  0  0  0  0  0  0  0  0  0  0  0
   21.8310   13.8810   12.6190 C   0  0  0  0  0  3  0  0  0  0  0  0
   17.8490   15.7590   10.3980 C   0  0  0  0  0  1  0  0  0  0  0  0
   18.4570   12.2630   14.0190 Cl  0  0  0  0  0  0  0  0  0  0  0  0
   22.8640   12.5810   14.9910 N   0  0  0  0  0  0  0  0  0  0  0  0
   22.6920   13.1790   15.7960 H   0  0  0  0  0  0  0  0  0  0  0  0
   23.7990   11.5160   15.3300 C   0  0  0  0  0  3  0  0  0  0  0  0
   25.0700   11.9650   16.0540 C   0  0  0  0  0  2  0  0  0  0  0  0
   24.3800   10.8990   14.0560 C   0  0  0  0  0  2  0  0  0  0  0  0
   26.0640   10.8310   15.8120 C   0  0  0  0  0  2  0  0  0  0  0  0
   25.5860   10.1100   14.5510 C   0  0  0  0  0  2  0  0  0  0  0  0
  1 14  1  0
  2  1  1  0
  3  5  2  0
  4  6  2  0
  4  3  1  0
  5  8  1  0
  5  7  1  0
  6  9  1  0
  7 10  2  0
  8 11  1  0
  9  8  2  0
 10  2  1  0
 10 13  1  0
 11  2  2  0
 12  3  1  0
 14 16  1  0
 14 15  1  0
 16 17  1  0
 18 20  1  0
 18 16  1  0
 19 17  1  0
 20 19  1  0
M  RAD  8   1   3   4   2   6   2   9   2  11   2  12   2  16   2  17   3
M  RAD  3  18   3  19   3  20   3
M  END
>  <vina_score>  (4) 
-6.6040000000000001

>  <pose_id>  (4) 
4

$$$$

     RDKit          3D

 20 22  0  0  0  0  0  0  0  0999 V2000
   18.2800   15.2520   13.2280 C   0  0  0  0  0  2  0  0  0  0  0  0
   19.6500   14.8510   12.7560 C   0  0  0  0  0  0  0  0  0  0  0  0
   23.4680   13.7160   11.4570 C   0  0  0  0  0  0  0  0  0  0  0  0
   24.3570   13.0840   12.3440 C   0  0  0  0  0  3  0  0  0  0  0  0
   22.1880   14.0980   11.8770 C   0  0  0  0  0  0  0  0  0  0  0  0
   23.9770   12.8270   13.6560 C   0  0  0  0  0  3  0  0  0  0  0  0
   21.3410   14.7010   11.0230 N   0  0  0  0  0  0  0  0  0  0  0  0
   21.8160   13.8330   13.2120 C   0  0  0  0  0  0  0  0  0  0  0  0
   22.7090   13.2000   14.0910 C   0  0  0  0  0  3  0  0  0  0  0  0
   20.1150   15.0570   11.4650 C   0  0  0  0  0  0  0  0  0  0  0  0
   20.5350   14.2150   13.6350 C   0  0  0  0  0  3  0  0  0  0  0  0
   23.9020   13.9830   10.0400 C   0  0  0  0  0  1  0  0  0  0  0  0
   19.1830   15.8240   10.2380 Cl  0  0  0  0  0  0  0  0  0  0  0  0
   18.2690   16.3160   14.2330 N   0  0  0  0  0  0  0  0  0  0  0  0
   18.2260   17.2330   13.7920 H   0  0  0  0  0  0  0  0  0  0  0  0
   17.2300   16.1820   15.2450 C   0  0  0  0  0  3  0  0  0  0  0  0
   17.0390   14.7730   15.8070 C   0  0  0  0  0  2  0  0  0  0  0  0
   15.8550   16.4500   14.6290 C   0  0  0  0  0  2  0  0  0  0  0  0
   15.6270   14.7850   16.3900 C   0  0  0  0  0  2  0  0  0  0  0  0
   14.8800   15.9050   15.6660 C   0  0  0  0  0  2  0  0  0  0  0  0
  1 14  1  0
  2  1  1  0
  2 11  2  0
  3  5  2  0
  3  4  1  0
  4  6  2  0
  5  8  1  0
  6  9  1  0
  7 10  2  0
  7  5  1  0
  8 11  1  0
  8  9  2  0
 10  2  1  0
 12  3  1  0
 13 10  1  0
 14 16  1  0
 15 14  1  0
 16 17  1  0
 17 19  1  0
 18 16  1  0
 18 20  1  0
 20 19  1  0
M  RAD  8   1   3   4   2   6   2   9   2  11   2  12   2  16   2  17   3
M  RAD  3  18   3  19   3  20   3
M  END
>  <vina_score>  (5) 
-6.5410000000000004

>  <pose_id>  (5) 
5

$$$$
