
     RDKit          3D

 21 23  0  0  1  0  0  0  0  0999 V2000
   17.5930   15.2330   14.0510 C   0  0  0  0  0  2  0  0  0  0  0  0
   17.7130   14.1970   15.1350 C   0  0  0  0  0  0  0  0  0  0  0  0
   18.7340   14.0470   15.7990 O   0  0  0  0  0  0  0  0  0  0  0  0
   16.5530   13.2850   15.3170 C   0  0  0  0  0  3  0  0  0  0  0  0
   16.3980   12.0520   14.4600 C   0  0  0  0  0  2  0  0  0  0  0  0
   15.4800   13.2190   14.2560 C   0  0  0  0  0  2  0  0  0  0  0  0
   18.4430   14.8170   12.8430 C   0  0  0  0  0  3  0  0  0  0  0  0
   19.8180   15.3190   13.0000 N   0  0  0  0  0  0  0  0  0  0  0  0
   19.9350   15.8500   13.8670 H   0  0  0  0  0  0  0  0  0  0  0  0
   20.9130   14.4590   12.8250 C   0  0  0  0  0  0  0  0  0  0  0  0
   20.8370   13.0650   12.9210 C   0  0  0  0  0  3  0  0  0  0  0  0
   22.1290   15.0120   12.3950 C   0  0  0  0  0  3  0  0  0  0  0  0
   21.9520   12.2580   12.6650 C   0  0  0  0  0  3  0  0  0  0  0  0
   23.2470   14.2130   12.1400 C   0  0  0  0  0  3  0  0  0  0  0  0
   23.1590   12.8320   12.2810 C   0  0  0  0  0  3  0  0  0  0  0  0
   17.7820   15.3710   11.5860 C   0  0  0  0  0  0  0  0  0  0  0  0
   18.5310   15.7330   10.4550 C   0  0  0  0  0  3  0  0  0  0  0  0
   16.3900   15.5670   11.5600 C   0  0  0  0  0  3  0  0  0  0  0  0
   17.9050   16.2630    9.3260 C   0  0  0  0  0  3  0  0  0  0  0  0
   15.7670   16.0990   10.4290 C   0  0  0  0  0  3  0  0  0  0  0  0
   16.5250   16.4460    9.3130 C   0  0  0  0  0  3  0  0  0  0  0  0
  1  2  1  0
  2  4  1  0
  2  3  2  0
  5  4  1  0
  6  5  1  0
  6  4  1  0
  7  8  1  0
  7  1  1  0
  8  9  1  0
 10 11  2  0
 10  8  1  0
 12 10  1  0
 13 11  1  0
 14 15  1  0
 14 12  2  0
 15 13  2  0
 16  7  1  0
 17 16  2  0
 18 16  1  0
 19 17  1  0
 20 18  2  0
 21 19  2  0
 21 20  1  0
M  RAD  8   1   3   4   2   5   3   6   3   7   2  11   2  12   2  13   2
M  RAD  7  14   2  15   2  17   2  18   2  19   2  20   2  21   2
M  END
>  <vina_score>  (1) 
-6.2009999999999996

>  <pose_id>  (1) 
1

$$$$

     RDKit          3D

 21 23  0  0  1  0  0  0  0  0999 V2000
   18.5110   15.1370   14.0280 C   0  0  0  0  0  2  0  0  0  0  0  0
   18.2930   13.8980   14.8530 C   0  0  0  0  0  0  0  0  0  0  0  0
   18.3990   13.8880   16.0750 O   0  0  0  0  0  0  0  0  0  0  0  0
   18.0220   12.6400   14.1080 C   0  0  0  0  0  3  0  0  0  0  0  0
   16.6070   12.2330   13.7710 C   0  0  0  0  0  2  0  0  0  0  0  0
   17.3690   11.4780   14.8170 C   0  0  0  0  0  2  0  0  0  0  0  0
   19.2170   14.7660   12.7170 C   0  0  0  0  0  3  0  0  0  0  0  0
   20.5890   15.2980   12.7160 N   0  0  0  0  0  0  0  0  0  0  0  0
   20.7320   15.9880   13.4580 H   0  0  0  0  0  0  0  0  0  0  0  0
   21.6890   14.4290   12.6660 C   0  0  0  0  0  0  0  0  0  0  0  0
   22.5810   14.3540   11.5910 C   0  0  0  0  0  3  0  0  0  0  0  0
   22.0000   13.6860   13.8160 C   0  0  0  0  0  3  0  0  0  0  0  0
   23.7010   13.5150   11.6330 C   0  0  0  0  0  3  0  0  0  0  0  0
   23.1150   12.8460   13.8650 C   0  0  0  0  0  3  0  0  0  0  0  0
   23.9650   12.7560   12.7680 C   0  0  0  0  0  3  0  0  0  0  0  0
   18.3950   15.3270   11.5620 C   0  0  0  0  0  0  0  0  0  0  0  0
   16.9920   15.3840   11.6130 C   0  0  0  0  0  3  0  0  0  0  0  0
   19.0420   15.7640   10.3930 C   0  0  0  0  0  3  0  0  0  0  0  0
   16.2600   15.8770   10.5320 C   0  0  0  0  0  3  0  0  0  0  0  0
   18.3060   16.2560    9.3130 C   0  0  0  0  0  3  0  0  0  0  0  0
   16.9160   16.3120    9.3840 C   0  0  0  0  0  3  0  0  0  0  0  0
  1  2  1  0
  2  3  2  0
  4  6  1  0
  4  2  1  0
  5  4  1  0
  5  6  1  0
  7  1  1  0
  8  7  1  0
  8  9  1  0
 10  8  1  0
 10 12  1  0
 11 13  1  0
 11 10  2  0
 12 14  2  0
 13 15  2  0
 15 14  1  0
 16 17  2  0
 16  7  1  0
 18 16  1  0
 19 17  1  0
 20 21  1  0
 20 18  2  0
 21 19  2  0
M  RAD  8   1   3   4   2   5   3   6   3   7   2  11   2  12   2  13   2
M  RAD  7  14   2  15   2  17   2  18   2  19   2  20   2  21   2
M  END
>  <vina_score>  (2) 
-6.125

>  <pose_id>  (2) 
2

$$$$

     RDKit          3D

 21 23  0  0  1  0  0  0  0  0999 V2000
   18.3680    9.8950   21.1810 C   0  0  0  0  0  2  0  0  0  0  0  0
   18.9280   11.0760   21.9260 C   0  0  0  0  0  0  0  0  0  0  0  0
   20.1320   11.2570   22.0730 O   0  0  0  0  0  0  0  0  0  0  0  0
   17.9430   11.9890   22.5650 C   0  0  0  0  0  3  0  0  0  0  0  0
   17.7680   12.0060   24.0650 C   0  0  0  0  0  2  0  0  0  0  0  0
   16.6960   11.4180   23.1970 C   0  0  0  0  0  2  0  0  0  0  0  0
   18.3440   10.1990   19.6770 C   0  0  0  0  0  3  0  0  0  0  0  0
   19.4340   11.1260   19.3330 N   0  0  0  0  0  0  0  0  0  0  0  0
   19.7800   11.6300   20.1540 H   0  0  0  0  0  0  0  0  0  0  0  0
   20.5190   10.6920   18.5570 C   0  0  0  0  0  0  0  0  0  0  0  0
   20.4850   10.5660   17.1640 C   0  0  0  0  0  3  0  0  0  0  0  0
   21.7560   10.5030   19.1940 C   0  0  0  0  0  3  0  0  0  0  0  0
   21.6260   10.1950   16.4410 C   0  0  0  0  0  3  0  0  0  0  0  0
   22.8980   10.1320   18.4780 C   0  0  0  0  0  3  0  0  0  0  0  0
   22.8310    9.9720   17.0980 C   0  0  0  0  0  3  0  0  0  0  0  0
   16.9790   10.7830   19.3340 C   0  0  0  0  0  0  0  0  0  0  0  0
   15.8050   10.3400   19.9650 C   0  0  0  0  0  3  0  0  0  0  0  0
   16.8720   11.7650   18.3330 C   0  0  0  0  0  3  0  0  0  0  0  0
   14.5630   10.8710   19.6140 C   0  0  0  0  0  3  0  0  0  0  0  0
   15.6270   12.2940   17.9840 C   0  0  0  0  0  3  0  0  0  0  0  0
   14.4740   11.8460   18.6250 C   0  0  0  0  0  3  0  0  0  0  0  0
  1  2  1  0
  2  3  2  0
  2  4  1  0
  4  6  1  0
  4  5  1  0
  6  5  1  0
  7  1  1  0
  8  7  1  0
  8  9  1  0
 10 12  1  0
 10  8  1  0
 11 10  2  0
 13 15  2  0
 13 11  1  0
 14 12  2  0
 15 14  1  0
 16  7  1  0
 16 17  2  0
 18 16  1  0
 19 17  1  0
 20 18  2  0
 20 21  1  0
 21 19  2  0
M  RAD  8   1   3   4   2   5   3   6   3   7   2  11   2  12   2  13   2
M  RAD  7  14   2  15   2  17   2  18   2  19   2  20   2  21   2
M  END
>  <vina_score>  (3) 
-6.056

>  <pose_id>  (3) 
3

$$$$

     RDKit          3D

 21 23  0  0  1  0  0  0  0  0999 V2000
   21.6760   14.0270   13.4710 C   0  0  0  0  0  2  0  0  0  0  0  0
   22.7190   14.6270   12.5690 C   0  0  0  0  0  0  0  0  0  0  0  0
   22.6180   15.7550   12.0970 O   0  0  0  0  0  0  0  0  0  0  0  0
   23.8600   13.7500   12.1930 C   0  0  0  0  0  3  0  0  0  0  0  0
   24.0190   13.2570   10.7750 C   0  0  0  0  0  2  0  0  0  0  0  0
   23.6070   12.3010   11.8530 C   0  0  0  0  0  2  0  0  0  0  0  0
   20.3810   13.7970   12.6810 C   0  0  0  0  0  3  0  0  0  0  0  0
   19.5220   14.9890   12.7640 N   0  0  0  0  0  0  0  0  0  0  0  0
   20.0040   15.7770   13.2050 H   0  0  0  0  0  0  0  0  0  0  0  0
   18.8220   15.4410   11.6350 C   0  0  0  0  0  0  0  0  0  0  0  0
   19.4320   15.7990   10.4270 C   0  0  0  0  0  3  0  0  0  0  0  0
   17.4190   15.4030   11.6650 C   0  0  0  0  0  3  0  0  0  0  0  0
   18.6700   16.1750    9.3130 C   0  0  0  0  0  3  0  0  0  0  0  0
   16.6540   15.7770   10.5570 C   0  0  0  0  0  3  0  0  0  0  0  0
   17.2810   16.1700    9.3800 C   0  0  0  0  0  3  0  0  0  0  0  0
   19.6890   12.5650   13.2560 C   0  0  0  0  0  0  0  0  0  0  0  0
   20.0840   11.2640   12.9030 C   0  0  0  0  0  3  0  0  0  0  0  0
   18.6010   12.7220   14.1320 C   0  0  0  0  0  3  0  0  0  0  0  0
   19.4180   10.1530   13.4210 C   0  0  0  0  0  3  0  0  0  0  0  0
   17.9360   11.6070   14.6480 C   0  0  0  0  0  3  0  0  0  0  0  0
   18.3450   10.3240   14.2920 C   0  0  0  0  0  3  0  0  0  0  0  0
  2  1  1  0
  3  2  2  0
  4  2  1  0
  5  6  1  0
  5  4  1  0
  6  4  1  0
  7  8  1  0
  7 16  1  0
  7  1  1  0
  8  9  1  0
 10 12  1  0
 10  8  1  0
 11 10  2  0
 13 15  2  0
 13 11  1  0
 14 12  2  0
 15 14  1  0
 16 18  1  0
 17 16  2  0
 17 19  1  0
 18 20  2  0
 19 21  2  0
 21 20  1  0
M  RAD  8   1   3   4   2   5   3   6   3   7   2  11   2  12   2  13   2
M  RAD  7  14   2  15   2  17   2  18   2  19   2  20   2  21   2
M  END
>  <vina_score>  (4) 
-5.8869999999999996

>  <pose_id>  (4) 
4

$$$$

     RDKit          3D

 21 23  0  0  1  0  0  0  0  0999 V2000
   19.3150   12.9820   13.0490 C   0  0  0  0  0  2  0  0  0  0  0  0
   18.3740   12.7950   14.2090 C   0  0  0  0  0  0  0  0  0  0  0  0
   18.6610   13.1240   15.3550 O   0  0  0  0  0  0  0  0  0  0  0  0
   17.0910   12.1020   13.9200 C   0  0  0  0  0  3  0  0  0  0  0  0
   15.9700   12.8210   13.2070 C   0  0  0  0  0  2  0  0  0  0  0  0
   15.8410   12.5040   14.6660 C   0  0  0  0  0  2  0  0  0  0  0  0
   20.1970   14.2140   13.2940 C   0  0  0  0  0  3  0  0  0  0  0  0
   19.8300   15.2890   12.3590 N   0  0  0  0  0  0  0  0  0  0  0  0
   20.3300   15.2090   11.4690 H   0  0  0  0  0  0  0  0  0  0  0  0
   18.4810   15.5880   12.1130 C   0  0  0  0  0  0  0  0  0  0  0  0
   17.6140   16.1370   13.0650 C   0  0  0  0  0  3  0  0  0  0  0  0
   18.0020   15.4610   10.7990 C   0  0  0  0  0  3  0  0  0  0  0  0
   16.2970   16.4790   12.7350 C   0  0  0  0  0  3  0  0  0  0  0  0
   16.6880   15.7990   10.4640 C   0  0  0  0  0  3  0  0  0  0  0  0
   15.8320   16.3040   11.4370 C   0  0  0  0  0  3  0  0  0  0  0  0
   21.6530   13.7940   13.1260 C   0  0  0  0  0  0  0  0  0  0  0  0
   22.3530   14.0170   11.9290 C   0  0  0  0  0  3  0  0  0  0  0  0
   22.3120   13.1290   14.1740 C   0  0  0  0  0  3  0  0  0  0  0  0
   23.6770   13.5990   11.7900 C   0  0  0  0  0  3  0  0  0  0  0  0
   23.6370   12.7110   14.0310 C   0  0  0  0  0  3  0  0  0  0  0  0
   24.3180   12.9470   12.8390 C   0  0  0  0  0  3  0  0  0  0  0  0
  1  2  1  0
  2  3  2  0
  4  2  1  0
  4  6  1  0
  5  4  1  0
  5  6  1  0
  7  1  1  0
  8  7  1  0
  9  8  1  0
 10  8  1  0
 10 11  2  0
 12 10  1  0
 13 11  1  0
 14 12  2  0
 14 15  1  0
 15 13  2  0
 16  7  1  0
 16 18  1  0
 17 16  2  0
 19 17  1  0
 19 21  2  0
 20 18  2  0
 21 20  1  0
M  RAD  8   1   3   4   2   5   3   6   3   7   2  11   2  12   2  13   2
M  RAD  7  14   2  15   2  17   2  18   2  19   2  20   2  21   2
M  END
>  <vina_score>  (5) 
-5.5890000000000004

>  <pose_id>  (5) 
5

$$$$
