
     RDKit          3D

 44 46  0  0  1  0  0  0  0  0999 V2000
   20.5320    9.1870   18.2330 C   0  0  0  0  0  3  0  0  0  0  0  0
   19.9000   10.1030   19.3140 C   0  0  0  0  0  3  0  0  0  0  0  0
   19.3060   11.3830   18.7040 C   0  0  0  0  0  1  0  0  0  0  0  0
   18.8780    9.3000   20.1500 C   0  0  0  0  0  3  0  0  0  0  0  0
   19.5880    8.2100   20.7730 O   0  0  0  0  0  0  0  0  0  0  0  0
   19.3320    8.2490   21.7190 H   0  0  0  0  0  0  0  0  0  0  0  0
   18.2280   10.1120   21.2590 C   0  0  0  0  0  0  0  0  0  0  0  0
   16.8420   10.1330   21.4130 C   0  0  0  0  0  3  0  0  0  0  0  0
   19.0710   10.7900   22.0850 N   0  0  0  0  0  0  0  0  0  0  0  0
   16.2890   10.8900   22.4450 C   0  0  0  0  0  3  0  0  0  0  0  0
   18.5030   11.5180   23.0770 C   0  0  0  0  0  3  0  0  0  0  0  0
   17.1360   11.5950   23.2880 C   0  0  0  0  0  0  0  0  0  0  0  0
   16.6590   12.3550   24.3100 O   0  0  0  0  0  0  0  0  0  0  0  0
   15.6900   12.2850   24.3310 H   0  0  0  0  0  0  0  0  0  0  0  0
   19.9930    9.4540   16.8780 N   0  0  0  0  0  0  0  0  0  0  0  0
   19.0180    9.1380   16.8720 H   0  0  0  0  0  0  0  0  0  0  0  0
   19.9090   10.4680   16.7730 H   0  0  0  0  0  0  0  0  0  0  0  0
   22.0720    9.3180   18.2120 C   0  0  0  0  0  0  0  0  0  0  0  0
   22.6940   10.0450   18.9870 O   0  0  0  0  0  0  0  0  0  0  0  0
   22.7030    8.5740   17.2480 N   0  0  0  0  0  0  0  0  0  0  0  0
   22.1640    8.0580   16.5550 H   0  0  0  0  0  0  0  0  0  0  0  0
   24.1590    8.6110   17.0730 C   0  0  0  0  0  3  0  0  0  0  0  0
   24.7520    7.5030   17.9280 C   0  0  0  0  0  0  0  0  0  0  0  0
   25.1500    6.4200   17.5260 O   0  0  0  0  0  0  0  0  0  0  0  0
   24.8470    7.8550   19.2260 O   0  0  0  0  0  0  0  0  0  0  0  0
   25.4840    7.1900   19.5920 H   0  0  0  0  0  0  0  0  0  0  0  0
   24.5530    8.4600   15.5890 C   0  0  0  0  0  3  0  0  0  0  0  0
   24.8580    9.7430   14.9930 O   0  0  0  0  0  0  0  0  0  0  0  0
   23.4980    7.7690   14.7120 C   0  0  0  0  0  3  0  0  0  0  0  0
   24.2150    9.7930   13.7090 C   0  0  0  0  0  3  0  0  0  0  0  0
   22.9990    8.8600   13.7730 C   0  0  0  0  0  3  0  0  0  0  0  0
   24.1240    6.7560   13.8920 O   0  0  0  0  0  0  0  0  0  0  0  0
   24.0430    5.9070   14.3700 H   0  0  0  0  0  0  0  0  0  0  0  0
   23.9520   11.1920   13.3560 N   0  0  0  0  0  0  0  0  0  0  0  0
   23.2520   11.9750   14.2570 C   0  0  0  0  0  3  0  0  0  0  0  0
   24.3530   11.7000   12.1240 C   0  0  0  0  0  0  0  0  0  0  0  0
   22.9400   13.2490   14.0100 C   0  0  0  0  0  3  0  0  0  0  0  0
   24.0290   13.0130   11.8880 N   0  0  0  0  0  0  0  0  0  0  0  0
   24.9690   11.0760   11.2590 O   0  0  0  0  0  0  0  0  0  0  0  0
   23.3460   13.8410   12.7290 C   0  0  0  0  0  0  0  0  0  0  0  0
   23.0800   15.0050   12.4540 O   0  0  0  0  0  0  0  0  0  0  0  0
   24.3050   13.3970   10.9990 H   0  0  0  0  0  0  0  0  0  0  0  0
   22.6430    8.3300   12.4920 O   0  0  0  0  0  0  0  0  0  0  0  0
   23.4500    8.4290   11.9420 H   0  0  0  0  0  0  0  0  0  0  0  0
  1 18  1  0
  1  2  1  0
  2  3  1  0
  4  2  1  1
  4  5  1  0
  4  7  1  0
  5  6  1  0
  7  8  2  0
  7  9  1  0
  8 10  1  0
  9 11  2  0
 10 12  2  0
 11 12  1  0
 12 13  1  0
 13 14  1  0
  1 15  1  0
 16 15  1  0
 17 15  1  0
 18 19  2  0
 20 18  1  0
 20 21  1  0
 22 20  1  0
 22 23  1  1
 23 25  1  0
 24 23  2  0
 25 26  1  0
 27 22  1  0
 27 28  1  0
 29 32  1  0
 29 27  1  0
 30 34  1  0
 30 31  1  0
 30 28  1  0
 31 43  1  0
 31 29  1  6
 32 33  1  0
 34 35  1  0
 36 34  1  0
 37 35  2  0
 38 36  1  0
 38 40  1  0
 39 36  2  0
 40 37  1  0
 41 40  2  0
 42 38  1  0
 44 43  1  0
M  END
>  <vina_score>  (1) 
-8.3079999999999998

>  <pose_id>  (1) 
1

$$$$

     RDKit          3D

 44 46  0  0  1  0  0  0  0  0999 V2000
   21.0260   10.5280   18.7440 C   0  0  0  0  0  3  0  0  0  0  0  0
   20.4870   11.1740   20.0460 C   0  0  0  0  0  3  0  0  0  0  0  0
   19.5780   12.3790   19.7520 C   0  0  0  0  0  1  0  0  0  0  0  0
   19.8030   10.1000   20.9210 C   0  0  0  0  0  3  0  0  0  0  0  0
   20.8060    9.5610   21.8070 O   0  0  0  0  0  0  0  0  0  0  0  0
   21.5010    9.2040   21.2140 H   0  0  0  0  0  0  0  0  0  0  0  0
   18.6790   10.6470   21.7870 C   0  0  0  0  0  0  0  0  0  0  0  0
   17.3470   10.3380   21.5080 C   0  0  0  0  0  3  0  0  0  0  0  0
   19.0490   11.4270   22.8390 N   0  0  0  0  0  0  0  0  0  0  0  0
   16.3480   10.8610   22.3290 C   0  0  0  0  0  3  0  0  0  0  0  0
   18.0550   11.9200   23.6160 C   0  0  0  0  0  3  0  0  0  0  0  0
   16.7110   11.6660   23.3990 C   0  0  0  0  0  0  0  0  0  0  0  0
   15.7850   12.2090   24.2340 O   0  0  0  0  0  0  0  0  0  0  0  0
   16.1340   13.0420   24.5930 H   0  0  0  0  0  0  0  0  0  0  0  0
   21.5710    9.1670   18.9680 N   0  0  0  0  0  0  0  0  0  0  0  0
   22.2500    8.9860   18.2220 H   0  0  0  0  0  0  0  0  0  0  0  0
   22.1530    9.2020   19.8080 H   0  0  0  0  0  0  0  0  0  0  0  0
   19.9370   10.4730   17.6480 C   0  0  0  0  0  0  0  0  0  0  0  0
   19.0320    9.6390   17.6430 O   0  0  0  0  0  0  0  0  0  0  0  0
   20.0610   11.4190   16.6620 N   0  0  0  0  0  0  0  0  0  0  0  0
   20.8710   12.0340   16.6310 H   0  0  0  0  0  0  0  0  0  0  0  0
   19.1280   11.4820   15.5310 C   0  0  0  0  0  3  0  0  0  0  0  0
   18.1740   12.6360   15.7900 C   0  0  0  0  0  0  0  0  0  0  0  0
   18.2990   13.4930   16.6530 O   0  0  0  0  0  0  0  0  0  0  0  0
   17.1510   12.6610   14.9120 O   0  0  0  0  0  0  0  0  0  0  0  0
   16.5180   13.3040   15.3220 H   0  0  0  0  0  0  0  0  0  0  0  0
   19.8750   11.6490   14.1920 C   0  0  0  0  0  3  0  0  0  0  0  0
   20.9520   10.6890   14.0670 O   0  0  0  0  0  0  0  0  0  0  0  0
   20.4610   13.0490   13.9530 C   0  0  0  0  0  3  0  0  0  0  0  0
   22.1040   11.3860   13.5710 C   0  0  0  0  0  3  0  0  0  0  0  0
   21.9710   12.8530   14.0010 C   0  0  0  0  0  3  0  0  0  0  0  0
   20.1330   13.5010   12.6190 O   0  0  0  0  0  0  0  0  0  0  0  0
   19.8750   12.7120   12.1020 H   0  0  0  0  0  0  0  0  0  0  0  0
   23.3170   10.6830   14.0040 N   0  0  0  0  0  0  0  0  0  0  0  0
   23.2670    9.9550   15.1800 C   0  0  0  0  0  3  0  0  0  0  0  0
   24.4980   10.7890   13.2740 C   0  0  0  0  0  0  0  0  0  0  0  0
   24.3280    9.3090   15.6680 C   0  0  0  0  0  3  0  0  0  0  0  0
   25.5760   10.1130   13.7880 N   0  0  0  0  0  0  0  0  0  0  0  0
   24.6370   11.4200   12.2260 O   0  0  0  0  0  0  0  0  0  0  0  0
   25.5980    9.3770   14.9360 C   0  0  0  0  0  0  0  0  0  0  0  0
   26.6000    8.8030   15.3450 O   0  0  0  0  0  0  0  0  0  0  0  0
   26.4420   10.1830   13.2780 H   0  0  0  0  0  0  0  0  0  0  0  0
   22.6470   13.7510   13.1160 O   0  0  0  0  0  0  0  0  0  0  0  0
   23.6030   13.5990   13.2810 H   0  0  0  0  0  0  0  0  0  0  0  0
  1 18  1  0
  1 15  1  1
  2  1  1  0
  2  3  1  0
  2  4  1  0
  4  7  1  0
  4  5  1  1
  6  5  1  0
  7  9  1  0
  8  7  2  0
  8 10  1  0
  9 11  2  0
 10 12  2  0
 12 11  1  0
 12 13  1  0
 13 14  1  0
 15 17  1  0
 16 15  1  0
 19 18  2  0
 20 18  1  0
 20 21  1  0
 22 23  1  1
 22 20  1  0
 23 24  2  0
 25 26  1  0
 25 23  1  0
 22 27  1  0
 28 27  1  0
 29 32  1  0
 31 29  1  0
 29 27  1  1
 31 30  1  0
 30 34  1  0
 30 28  1  1
 31 43  1  0
 33 32  1  0
 34 35  1  0
 35 37  2  0
 36 38  1  0
 36 34  1  0
 38 40  1  0
 39 36  2  0
 40 41  2  0
 40 37  1  0
 42 38  1  0
 43 44  1  0
M  END
>  <vina_score>  (2) 
-8.0510000000000002

>  <pose_id>  (2) 
2

$$$$

     RDKit          3D

 44 46  0  0  1  0  0  0  0  0999 V2000
   20.6860    9.7010   14.1390 C   0  0  0  0  0  3  0  0  0  0  0  0
   20.3970    9.3980   15.6320 C   0  0  0  0  0  3  0  0  0  0  0  0
   20.3670    7.8860   15.9130 C   0  0  0  0  0  1  0  0  0  0  0  0
   21.4020   10.1580   16.5260 C   0  0  0  0  0  3  0  0  0  0  0  0
   21.9120   11.2670   15.7570 O   0  0  0  0  0  0  0  0  0  0  0  0
   21.1150   11.7350   15.4280 H   0  0  0  0  0  0  0  0  0  0  0  0
   20.7800   10.7300   17.7900 C   0  0  0  0  0  0  0  0  0  0  0  0
   21.4440   10.6520   19.0140 C   0  0  0  0  0  3  0  0  0  0  0  0
   19.5640   11.3270   17.6490 N   0  0  0  0  0  0  0  0  0  0  0  0
   20.8360   11.1910   20.1470 C   0  0  0  0  0  3  0  0  0  0  0  0
   18.9990   11.8390   18.7690 C   0  0  0  0  0  3  0  0  0  0  0  0
   19.5930   11.7920   20.0200 C   0  0  0  0  0  0  0  0  0  0  0  0
   18.9450   12.3320   21.0870 O   0  0  0  0  0  0  0  0  0  0  0  0
   19.5300   12.2950   21.8630 H   0  0  0  0  0  0  0  0  0  0  0  0
   20.9240    8.4720   13.3450 N   0  0  0  0  0  0  0  0  0  0  0  0
   20.2220    7.7840   13.6340 H   0  0  0  0  0  0  0  0  0  0  0  0
   20.6640    8.6750   12.3760 H   0  0  0  0  0  0  0  0  0  0  0  0
   19.5400   10.5160   13.4960 C   0  0  0  0  0  0  0  0  0  0  0  0
   19.2090   10.3940   12.3170 O   0  0  0  0  0  0  0  0  0  0  0  0
   18.9200   11.4060   14.3360 N   0  0  0  0  0  0  0  0  0  0  0  0
   19.2740   11.5620   15.2790 H   0  0  0  0  0  0  0  0  0  0  0  0
   17.8360   12.2790   13.8750 C   0  0  0  0  0  3  0  0  0  0  0  0
   16.7790   12.3120   14.9660 C   0  0  0  0  0  0  0  0  0  0  0  0
   15.8480   13.1010   15.0420 O   0  0  0  0  0  0  0  0  0  0  0  0
   16.9380   11.3180   15.8630 O   0  0  0  0  0  0  0  0  0  0  0  0
   17.0160   11.8020   16.7240 H   0  0  0  0  0  0  0  0  0  0  0  0
   18.3530   13.6930   13.5380 C   0  0  0  0  0  3  0  0  0  0  0  0
   19.3020   13.6580   12.4450 O   0  0  0  0  0  0  0  0  0  0  0  0
   19.0110   14.4320   14.7130 C   0  0  0  0  0  3  0  0  0  0  0  0
   20.4100   14.5000   12.8010 C   0  0  0  0  0  3  0  0  0  0  0  0
   20.4830   14.5330   14.3330 C   0  0  0  0  0  3  0  0  0  0  0  0
   18.5000   15.7820   14.7950 O   0  0  0  0  0  0  0  0  0  0  0  0
   18.3850   15.9910   15.7420 H   0  0  0  0  0  0  0  0  0  0  0  0
   21.6110   14.0400   12.0960 N   0  0  0  0  0  0  0  0  0  0  0  0
   22.1920   12.8500   12.5000 C   0  0  0  0  0  3  0  0  0  0  0  0
   22.1770   14.8080   11.0820 C   0  0  0  0  0  0  0  0  0  0  0  0
   23.3030   12.3690   11.9380 C   0  0  0  0  0  3  0  0  0  0  0  0
   23.3150   14.2940   10.5120 N   0  0  0  0  0  0  0  0  0  0  0  0
   21.7360   15.8800   10.6660 O   0  0  0  0  0  0  0  0  0  0  0  0
   23.9380   13.1320   10.8570 C   0  0  0  0  0  0  0  0  0  0  0  0
   24.9610   12.7330   10.3120 O   0  0  0  0  0  0  0  0  0  0  0  0
   23.7430   14.8400    9.7810 H   0  0  0  0  0  0  0  0  0  0  0  0
   21.0750   15.7370   14.8320 O   0  0  0  0  0  0  0  0  0  0  0  0
   20.8380   15.7600   15.7840 H   0  0  0  0  0  0  0  0  0  0  0  0
  1 18  1  0
  1  2  1  0
  2  3  1  1
  4  2  1  0
  4  5  1  0
  4  7  1  0
  6  5  1  0
  7  8  1  1
  8 10  2  0
  9  7  2  0
  9 11  1  0
 11 12  2  0
 12 10  1  0
 12 13  1  0
 13 14  1  0
 15 16  1  0
  1 15  1  0
 17 15  1  0
 20 18  1  0
 19 18  2  0
 20 21  1  0
 22 20  1  0
 22 23  1  1
 23 24  2  0
 23 25  1  0
 25 26  1  0
 27 22  1  0
 27 29  1  0
 30 28  1  0
 27 28  1  6
 29 32  1  0
 30 34  1  0
 30 31  1  0
 31 29  1  1
 31 43  1  0
 32 33  1  0
 34 35  1  0
 36 34  1  0
 37 35  2  0
 38 40  1  0
 38 36  1  0
 39 36  2  0
 40 37  1  0
 41 40  2  0
 42 38  1  0
 43 44  1  0
M  END
>  <vina_score>  (3) 
-8.0229999999999997

>  <pose_id>  (3) 
3

$$$$

     RDKit          3D

 44 46  0  0  1  0  0  0  0  0999 V2000
   19.0420   10.9690   18.3170 C   0  0  0  0  0  3  0  0  0  0  0  0
   19.8030    9.9160   19.1630 C   0  0  0  0  0  3  0  0  0  0  0  0
   20.9790   10.5410   19.9320 C   0  0  0  0  0  1  0  0  0  0  0  0
   18.8130    9.1630   20.0800 C   0  0  0  0  0  3  0  0  0  0  0  0
   19.5460    8.1060   20.7330 O   0  0  0  0  0  0  0  0  0  0  0  0
   18.8640    7.4570   21.0060 H   0  0  0  0  0  0  0  0  0  0  0  0
   18.2080   10.0370   21.1680 C   0  0  0  0  0  0  0  0  0  0  0  0
   16.8250   10.1520   21.3070 C   0  0  0  0  0  3  0  0  0  0  0  0
   19.0870   10.6730   21.9910 N   0  0  0  0  0  0  0  0  0  0  0  0
   16.3140   10.9630   22.3190 C   0  0  0  0  0  3  0  0  0  0  0  0
   18.5590   11.4550   22.9630 C   0  0  0  0  0  3  0  0  0  0  0  0
   17.1980   11.6250   23.1590 C   0  0  0  0  0  0  0  0  0  0  0  0
   16.7630   12.4340   24.1620 O   0  0  0  0  0  0  0  0  0  0  0  0
   16.5970   11.8940   24.9530 H   0  0  0  0  0  0  0  0  0  0  0  0
   19.4140   12.3600   18.6730 N   0  0  0  0  0  0  0  0  0  0  0  0
   20.0100   12.7160   17.9190 H   0  0  0  0  0  0  0  0  0  0  0  0
   18.5710   12.9350   18.5920 H   0  0  0  0  0  0  0  0  0  0  0  0
   19.2640   10.7470   16.8040 C   0  0  0  0  0  0  0  0  0  0  0  0
   20.0640    9.9240   16.3580 O   0  0  0  0  0  0  0  0  0  0  0  0
   18.5130   11.5490   15.9830 N   0  0  0  0  0  0  0  0  0  0  0  0
   17.9320   12.2890   16.3720 H   0  0  0  0  0  0  0  0  0  0  0  0
   18.6290   11.4860   14.5220 C   0  0  0  0  0  3  0  0  0  0  0  0
   17.3950   10.7730   13.9950 C   0  0  0  0  0  0  0  0  0  0  0  0
   16.9750    9.6890   14.3730 O   0  0  0  0  0  0  0  0  0  0  0  0
   16.7450   11.4970   13.0630 O   0  0  0  0  0  0  0  0  0  0  0  0
   16.6220   10.8510   12.3220 H   0  0  0  0  0  0  0  0  0  0  0  0
   18.7830   12.8920   13.9070 C   0  0  0  0  0  3  0  0  0  0  0  0
   19.6480   12.8660   12.7470 O   0  0  0  0  0  0  0  0  0  0  0  0
   19.3180   13.9610   14.8720 C   0  0  0  0  0  3  0  0  0  0  0  0
   20.5480   13.9810   12.8480 C   0  0  0  0  0  3  0  0  0  0  0  0
   20.7020   14.3090   14.3380 C   0  0  0  0  0  3  0  0  0  0  0  0
   18.5120   15.1570   14.7800 O   0  0  0  0  0  0  0  0  0  0  0  0
   17.7220   15.0190   15.3390 H   0  0  0  0  0  0  0  0  0  0  0  0
   21.7800   13.6730   12.1130 N   0  0  0  0  0  0  0  0  0  0  0  0
   22.4580   12.5090   12.4290 C   0  0  0  0  0  3  0  0  0  0  0  0
   22.2770   14.5570   11.1590 C   0  0  0  0  0  0  0  0  0  0  0  0
   23.6020   12.1620   11.8360 C   0  0  0  0  0  3  0  0  0  0  0  0
   23.4520   14.1810   10.5550 N   0  0  0  0  0  0  0  0  0  0  0  0
   21.7490   15.6170   10.8220 O   0  0  0  0  0  0  0  0  0  0  0  0
   24.1690   13.0510   10.8150 C   0  0  0  0  0  0  0  0  0  0  0  0
   25.2180   12.7780   10.2450 O   0  0  0  0  0  0  0  0  0  0  0  0
   23.8300   14.8120    9.8670 H   0  0  0  0  0  0  0  0  0  0  0  0
   21.0250   15.6840   14.5700 O   0  0  0  0  0  0  0  0  0  0  0  0
   20.5850   15.9090   15.4190 H   0  0  0  0  0  0  0  0  0  0  0  0
  1 18  1  0
  1 15  1  1
  2  1  1  0
  2  3  1  1
  4  2  1  0
  4  5  1  0
  4  7  1  0
  5  6  1  0
  7  8  2  0
  7  9  1  1
  8 10  1  0
  9 11  2  0
 10 12  2  0
 11 12  1  0
 12 13  1  0
 13 14  1  0
 16 15  1  0
 17 15  1  0
 19 18  2  0
 20 21  1  0
 20 18  1  1
 22 23  1  0
 22 20  1  0
 23 24  2  0
 25 23  1  0
 26 25  1  0
 22 27  1  0
 27 29  1  1
 30 28  1  0
 27 28  1  0
 29 32  1  0
 30 34  1  0
 30 31  1  0
 31 43  1  0
 31 29  1  1
 32 33  1  0
 34 35  1  0
 36 34  1  0
 37 35  2  0
 38 40  1  0
 38 36  1  0
 39 36  2  0
 40 37  1  0
 41 40  2  0
 42 38  1  0
 43 44  1  0
M  END
>  <vina_score>  (4) 
-8.0220000000000002

>  <pose_id>  (4) 
4

$$$$

     RDKit          3D

 44 46  0  0  1  0  0  0  0  0999 V2000
   19.6570   13.5880   14.9000 C   0  0  0  0  0  3  0  0  0  0  0  0
   19.6370   13.7500   13.3580 C   0  0  0  0  0  3  0  0  0  0  0  0
   18.2600   14.2080   12.8490 C   0  0  0  0  0  1  0  0  0  0  0  0
   20.7860   14.6820   12.9130 C   0  0  0  0  0  3  0  0  0  0  0  0
   21.3280   15.2980   14.1000 O   0  0  0  0  0  0  0  0  0  0  0  0
   20.7130   15.0420   14.8210 H   0  0  0  0  0  0  0  0  0  0  0  0
   21.9260   13.9530   12.2190 C   0  0  0  0  0  0  0  0  0  0  0  0
   22.5960   14.5330   11.1420 C   0  0  0  0  0  3  0  0  0  0  0  0
   22.2540   12.7290   12.7180 N   0  0  0  0  0  0  0  0  0  0  0  0
   23.6360   13.8290   10.5360 C   0  0  0  0  0  3  0  0  0  0  0  0
   23.2670   12.0700   12.1060 C   0  0  0  0  0  3  0  0  0  0  0  0
   23.9740   12.5770   11.0280 C   0  0  0  0  0  0  0  0  0  0  0  0
   24.9750   11.8370   10.4790 O   0  0  0  0  0  0  0  0  0  0  0  0
   24.6050   11.2770    9.7760 H   0  0  0  0  0  0  0  0  0  0  0  0
   18.5670   14.3430   15.5650 N   0  0  0  0  0  0  0  0  0  0  0  0
   17.9100   13.6540   15.9450 H   0  0  0  0  0  0  0  0  0  0  0  0
   18.9600   14.7750   16.4050 H   0  0  0  0  0  0  0  0  0  0  0  0
   19.5800   12.1000   15.3130 C   0  0  0  0  0  0  0  0  0  0  0  0
   19.3960   11.1890   14.5050 O   0  0  0  0  0  0  0  0  0  0  0  0
   19.7160   11.8640   16.6570 N   0  0  0  0  0  0  0  0  0  0  0  0
   19.7680   12.6370   17.3170 H   0  0  0  0  0  0  0  0  0  0  0  0
   19.6340   10.5100   17.2160 C   0  0  0  0  0  3  0  0  0  0  0  0
   20.5190   10.4710   18.4510 C   0  0  0  0  0  0  0  0  0  0  0  0
   21.1920    9.5210   18.8230 O   0  0  0  0  0  0  0  0  0  0  0  0
   20.5340   11.6480   19.1070 O   0  0  0  0  0  0  0  0  0  0  0  0
   20.6440   11.3760   20.0540 H   0  0  0  0  0  0  0  0  0  0  0  0
   18.1780   10.1220   17.5450 C   0  0  0  0  0  3  0  0  0  0  0  0
   17.6520   10.9240   18.6290 O   0  0  0  0  0  0  0  0  0  0  0  0
   17.9740    8.6430   17.9090 C   0  0  0  0  0  3  0  0  0  0  0  0
   16.9620   10.0440   19.5300 C   0  0  0  0  0  3  0  0  0  0  0  0
   17.5960    8.6550   19.3850 C   0  0  0  0  0  3  0  0  0  0  0  0
   16.8440    8.1080   17.1850 O   0  0  0  0  0  0  0  0  0  0  0  0
   16.6990    7.1960   17.5070 H   0  0  0  0  0  0  0  0  0  0  0  0
   16.9660   10.6310   20.8740 N   0  0  0  0  0  0  0  0  0  0  0  0
   18.0220   11.4540   21.2270 C   0  0  0  0  0  3  0  0  0  0  0  0
   15.9600   10.3250   21.7860 C   0  0  0  0  0  0  0  0  0  0  0  0
   18.1260   12.0080   22.4370 C   0  0  0  0  0  3  0  0  0  0  0  0
   16.0800   10.9070   23.0230 N   0  0  0  0  0  0  0  0  0  0  0  0
   14.9910    9.5970   21.5640 O   0  0  0  0  0  0  0  0  0  0  0  0
   17.0880   11.7280   23.4360 C   0  0  0  0  0  0  0  0  0  0  0  0
   17.1410   12.2090   24.5610 O   0  0  0  0  0  0  0  0  0  0  0  0
   15.3640   10.6920   23.6980 H   0  0  0  0  0  0  0  0  0  0  0  0
   16.6860    7.5980   19.7050 O   0  0  0  0  0  0  0  0  0  0  0  0
   16.6430    7.0460   18.8930 H   0  0  0  0  0  0  0  0  0  0  0  0
  1 18  1  0
  1 15  1  1
  2  3  1  0
  2  1  1  1
  4  2  1  0
  4  5  1  0
  5  6  1  0
  7  9  1  1
  4  7  1  0
  8  7  2  0
 10 12  2  0
 10  8  1  0
 11  9  2  0
 12 11  1  0
 13 12  1  0
 14 13  1  0
 15 16  1  0
 15 17  1  0
 20 18  1  0
 19 18  2  0
 22 20  1  0
 20 21  1  1
 22 23  1  0
 23 24  2  0
 23 25  1  0
 25 26  1  0
 22 27  1  0
 29 27  1  0
 27 28  1  1
 28 30  1  0
 29 32  1  0
 29 31  1  0
 30 34  1  0
 31 30  1  1
 31 43  1  0
 32 33  1  0
 34 35  1  0
 34 36  1  0
 35 37  2  0
 36 38  1  0
 37 40  1  0
 38 40  1  0
 38 42  1  0
 39 36  2  0
 40 41  2  0
 44 43  1  0
M  END
>  <vina_score>  (5) 
-7.8929999999999998

>  <pose_id>  (5) 
5

$$$$
