
     RDKit          3D

 26 28  0  0  0  0  0  0  0  0999 V2000
   20.9110   13.9400   14.1720 C   0  0  0  0  0  2  0  0  0  0  0  0
   19.9140   13.8930   13.0240 C   0  0  0  0  0  0  0  0  0  0  0  0
   19.4740   12.8250   12.6070 O   0  0  0  0  0  0  0  0  0  0  0  0
   19.5960   15.1470   12.5560 N   0  0  0  0  0  0  0  0  0  0  0  0
   20.0450   15.9640   12.9640 H   0  0  0  0  0  0  0  0  0  0  0  0
   18.6600   15.5180   11.5720 C   0  0  0  0  0  0  0  0  0  0  0  0
   18.9830   15.7640   10.2370 C   0  0  0  0  0  3  0  0  0  0  0  0
   17.3150   15.6060   12.0160 C   0  0  0  0  0  0  0  0  0  0  0  0
   17.9740   16.1020    9.3310 C   0  0  0  0  0  3  0  0  0  0  0  0
   16.3200   15.9560   11.0910 C   0  0  0  0  0  3  0  0  0  0  0  0
   16.6470   16.1990    9.7560 C   0  0  0  0  0  3  0  0  0  0  0  0
   17.0450   15.3700   13.3890 N   0  0  0  0  0  0  0  0  0  0  0  0
   16.4070   14.0740   13.7070 C   0  0  0  0  0  2  0  0  0  0  0  0
   16.2270   16.4580   13.9690 C   0  0  0  0  0  2  0  0  0  0  0  0
   15.0700   14.4300   14.3490 C   0  0  0  0  0  2  0  0  0  0  0  0
   15.3650   15.7620   15.0140 C   0  0  0  0  0  2  0  0  0  0  0  0
   22.2190   13.2710   13.8270 C   0  0  0  0  0  0  0  0  0  0  0  0
   22.9740   12.6380   14.8240 C   0  0  0  0  0  3  0  0  0  0  0  0
   22.7170   13.3070   12.5150 C   0  0  0  0  0  3  0  0  0  0  0  0
   24.1970   12.0420   14.5160 C   0  0  0  0  0  3  0  0  0  0  0  0
   23.9480   12.7130   12.1940 C   0  0  0  0  0  0  0  0  0  0  0  0
   24.6840   12.0810   13.2100 C   0  0  0  0  0  3  0  0  0  0  0  0
   24.4970   12.7900   10.7900 C   0  0  1  0  0  0  0  0  0  0  0  0
   23.6420   13.3900    9.9160 F   0  0  0  0  0  0  0  0  0  0  0  0
   25.6650   13.4940   10.7040 F   0  0  0  0  0  0  0  0  0  0  0  0
   24.7650   11.5610   10.2650 F   0  0  0  0  0  0  0  0  0  0  0  0
  2  1  1  0
  3  2  2  0
  4  5  1  0
  4  2  1  0
  6  8  1  0
  6  4  1  0
  7  6  2  0
  8 12  1  0
  9 11  2  0
  9  7  1  0
 10  8  2  0
 11 10  1  0
 12 13  1  0
 12 14  1  0
 13 15  1  0
 14 16  1  0
 15 16  1  0
 17  1  1  0
 17 18  1  0
 19 17  2  0
 20 18  2  0
 21 19  1  0
 21 22  2  0
 22 20  1  0
 23 21  1  0
 23 24  1  6
 25 23  1  0
 26 23  1  0
M  RAD  8   1   3   7   2   9   2  10   2  11   2  13   3  14   3  15   3
M  RAD  5  16   3  18   2  19   2  20   2  22   2
M  END
>  <vina_score>  (1) 
-7.8209999999999997

>  <pose_id>  (1) 
1

$$$$

     RDKit          3D

 26 28  0  0  0  0  0  0  0  0999 V2000
   21.2390   14.6360   13.5190 C   0  0  0  0  0  2  0  0  0  0  0  0
   19.9900   14.3730   12.6900 C   0  0  0  0  0  0  0  0  0  0  0  0
   19.6050   13.2280   12.4660 O   0  0  0  0  0  0  0  0  0  0  0  0
   19.3920   15.5360   12.2610 N   0  0  0  0  0  0  0  0  0  0  0  0
   19.8180   16.4310   12.4870 H   0  0  0  0  0  0  0  0  0  0  0  0
   18.1890   15.7070   11.5500 C   0  0  0  0  0  0  0  0  0  0  0  0
   18.1180   15.9960   10.1870 C   0  0  0  0  0  3  0  0  0  0  0  0
   17.0050   15.5380   12.3140 C   0  0  0  0  0  0  0  0  0  0  0  0
   16.8710   16.1220    9.5700 C   0  0  0  0  0  3  0  0  0  0  0  0
   15.7640   15.6790   11.6750 C   0  0  0  0  0  3  0  0  0  0  0  0
   15.6980   15.9650   10.3110 C   0  0  0  0  0  3  0  0  0  0  0  0
   17.1330   15.2690   13.7010 N   0  0  0  0  0  0  0  0  0  0  0  0
   16.5630   13.9860   14.1660 C   0  0  0  0  0  2  0  0  0  0  0  0
   16.5640   16.3660   14.5150 C   0  0  0  0  0  2  0  0  0  0  0  0
   15.4840   14.3670   15.1740 C   0  0  0  0  0  2  0  0  0  0  0  0
   16.0120   15.6680   15.7520 C   0  0  0  0  0  2  0  0  0  0  0  0
   22.4110   13.7940   13.0780 C   0  0  0  0  0  0  0  0  0  0  0  0
   22.8880   13.8790   11.7620 C   0  0  0  0  0  3  0  0  0  0  0  0
   23.0140   12.8870   13.9650 C   0  0  0  0  0  3  0  0  0  0  0  0
   23.9530   13.0830   11.3430 C   0  0  0  0  0  3  0  0  0  0  0  0
   24.0860   12.0790   13.5510 C   0  0  0  0  0  0  0  0  0  0  0  0
   24.5470   12.1860   12.2290 C   0  0  0  0  0  3  0  0  0  0  0  0
   24.7030   11.0770   14.4970 C   0  0  1  0  0  0  0  0  0  0  0  0
   25.3330   11.6610   15.5540 F   0  0  0  0  0  0  0  0  0  0  0  0
   23.7940   10.2150   15.0400 F   0  0  0  0  0  0  0  0  0  0  0  0
   25.6410   10.2960   13.8900 F   0  0  0  0  0  0  0  0  0  0  0  0
  2  1  1  0
  3  2  2  0
  4  5  1  0
  4  2  1  0
  6  4  1  0
  6  8  1  0
  7  6  2  0
  8 12  1  0
  9  7  1  0
  9 11  2  0
 10  8  2  0
 11 10  1  0
 12 13  1  0
 12 14  1  0
 13 15  1  0
 14 16  1  0
 15 16  1  0
 17  1  1  0
 17 19  2  0
 18 17  1  0
 20 18  2  0
 20 22  1  0
 21 19  1  0
 21 23  1  0
 22 21  2  0
 23 25  1  1
 23 24  1  0
 26 23  1  0
M  RAD  8   1   3   7   2   9   2  10   2  11   2  13   3  14   3  15   3
M  RAD  5  16   3  18   2  19   2  20   2  22   2
M  END
>  <vina_score>  (2) 
-7.569

>  <pose_id>  (2) 
2

$$$$

     RDKit          3D

 26 28  0  0  0  0  0  0  0  0999 V2000
   21.8600   15.1970   10.4730 C   0  0  0  0  0  2  0  0  0  0  0  0
   22.3740   14.9510   11.8840 C   0  0  0  0  0  0  0  0  0  0  0  0
   22.3890   15.8490   12.7210 O   0  0  0  0  0  0  0  0  0  0  0  0
   22.7880   13.6520   12.0700 N   0  0  0  0  0  0  0  0  0  0  0  0
   22.7520   12.9980   11.2910 H   0  0  0  0  0  0  0  0  0  0  0  0
   23.2420   13.0230   13.2450 C   0  0  0  0  0  0  0  0  0  0  0  0
   24.5610   13.0670   13.6970 C   0  0  0  0  0  3  0  0  0  0  0  0
   22.2470   12.3390   13.9900 C   0  0  0  0  0  0  0  0  0  0  0  0
   24.9060   12.4300   14.8920 C   0  0  0  0  0  3  0  0  0  0  0  0
   22.6180   11.6980   15.1820 C   0  0  0  0  0  3  0  0  0  0  0  0
   23.9380   11.7470   15.6320 C   0  0  0  0  0  3  0  0  0  0  0  0
   20.9260   12.3040   13.4730 N   0  0  0  0  0  0  0  0  0  0  0  0
   19.8720   12.8430   14.3600 C   0  0  0  0  0  2  0  0  0  0  0  0
   20.5480   10.9340   13.0600 C   0  0  0  0  0  2  0  0  0  0  0  0
   18.9260   11.6740   14.6160 C   0  0  0  0  0  2  0  0  0  0  0  0
   19.0520   10.8580   13.3420 C   0  0  0  0  0  2  0  0  0  0  0  0
   20.3710   15.4440   10.4370 C   0  0  0  0  0  0  0  0  0  0  0  0
   19.7880   16.0920    9.3390 C   0  0  0  0  0  3  0  0  0  0  0  0
   19.5570   15.0650   11.5170 C   0  0  0  0  0  3  0  0  0  0  0  0
   18.4170   16.3470    9.3140 C   0  0  0  0  0  3  0  0  0  0  0  0
   18.1760   15.3200   11.5020 C   0  0  0  0  0  0  0  0  0  0  0  0
   17.6150   15.9670   10.3880 C   0  0  0  0  0  3  0  0  0  0  0  0
   17.3130   14.9480   12.6830 C   0  0  1  0  0  0  0  0  0  0  0  0
   17.8810   15.2660   13.8800 F   0  0  0  0  0  0  0  0  0  0  0  0
   16.0940   15.5640   12.6780 F   0  0  0  0  0  0  0  0  0  0  0  0
   17.0520   13.6100   12.7390 F   0  0  0  0  0  0  0  0  0  0  0  0
  1  2  1  0
  2  4  1  0
  2  3  2  0
  4  6  1  0
  5  4  1  0
  6  7  2  0
  6  8  1  0
  7  9  1  0
  8 10  2  0
  9 11  2  0
 10 11  1  0
 12  8  1  0
 12 13  1  0
 13 15  1  0
 14 16  1  0
 14 12  1  0
 16 15  1  0
 17  1  1  0
 17 19  2  0
 18 17  1  0
 20 18  2  0
 20 22  1  0
 21 19  1  0
 21 23  1  0
 22 21  2  0
 23 26  1  1
 23 24  1  0
 25 23  1  0
M  RAD  8   1   3   7   2   9   2  10   2  11   2  13   3  14   3  15   3
M  RAD  5  16   3  18   2  19   2  20   2  22   2
M  END
>  <vina_score>  (3) 
-7.516

>  <pose_id>  (3) 
3

$$$$

     RDKit          3D

 26 28  0  0  0  0  0  0  0  0999 V2000
   18.0890   11.0670   17.8130 C   0  0  0  0  0  2  0  0  0  0  0  0
   17.3000   11.8090   16.7440 C   0  0  0  0  0  0  0  0  0  0  0  0
   16.6490   11.2020   15.8990 O   0  0  0  0  0  0  0  0  0  0  0  0
   17.4150   13.1750   16.8630 N   0  0  0  0  0  0  0  0  0  0  0  0
   18.0080   13.5670   17.5910 H   0  0  0  0  0  0  0  0  0  0  0  0
   16.7770   14.1890   16.1230 C   0  0  0  0  0  0  0  0  0  0  0  0
   15.5550   14.7640   16.4750 C   0  0  0  0  0  3  0  0  0  0  0  0
   17.4780   14.6340   14.9730 C   0  0  0  0  0  0  0  0  0  0  0  0
   15.0180   15.7850   15.6870 C   0  0  0  0  0  3  0  0  0  0  0  0
   16.9140   15.6520   14.1900 C   0  0  0  0  0  3  0  0  0  0  0  0
   15.6940   16.2270   14.5470 C   0  0  0  0  0  3  0  0  0  0  0  0
   18.7040   13.9990   14.6470 N   0  0  0  0  0  0  0  0  0  0  0  0
   19.9090   14.8550   14.7000 C   0  0  0  0  0  2  0  0  0  0  0  0
   18.6370   13.3540   13.3160 C   0  0  0  0  0  2  0  0  0  0  0  0
   20.4730   14.8470   13.2830 C   0  0  0  0  0  2  0  0  0  0  0  0
   20.0520   13.4830   12.7660 C   0  0  0  0  0  2  0  0  0  0  0  0
   17.3250   10.9400   19.1090 C   0  0  0  0  0  0  0  0  0  0  0  0
   15.9820   10.5400   19.1010 C   0  0  0  0  0  3  0  0  0  0  0  0
   17.9350   11.2580   20.3330 C   0  0  0  0  0  3  0  0  0  0  0  0
   15.2640   10.4480   20.2930 C   0  0  0  0  0  3  0  0  0  0  0  0
   17.2200   11.1710   21.5380 C   0  0  0  0  0  0  0  0  0  0  0  0
   15.8760   10.7630   21.5050 C   0  0  0  0  0  3  0  0  0  0  0  0
   17.8690   11.5530   22.8470 C   0  0  1  0  0  0  0  0  0  0  0  0
   19.2100   11.3120   22.8670 F   0  0  0  0  0  0  0  0  0  0  0  0
   17.7280   12.8750   23.1550 F   0  0  0  0  0  0  0  0  0  0  0  0
   17.3530   10.8670   23.9060 F   0  0  0  0  0  0  0  0  0  0  0  0
  1 17  1  0
  2  4  1  0
  2  1  1  0
  3  2  2  0
  4  5  1  0
  6  7  2  0
  6  4  1  0
  8  6  1  0
  9  7  1  0
 10 11  1  0
 10  8  2  0
 11  9  2  0
 12 13  1  0
 12  8  1  0
 14 12  1  0
 15 13  1  0
 16 15  1  0
 16 14  1  0
 17 19  2  0
 18 17  1  0
 18 20  2  0
 19 21  1  0
 20 22  1  0
 21 23  1  0
 22 21  2  0
 23 24  1  6
 23 25  1  0
 23 26  1  0
M  RAD  8   1   3   7   2   9   2  10   2  11   2  13   3  14   3  15   3
M  RAD  5  16   3  18   2  19   2  20   2  22   2
M  END
>  <vina_score>  (4) 
-7.4139999999999997

>  <pose_id>  (4) 
4

$$$$

     RDKit          3D

 26 28  0  0  0  0  0  0  0  0999 V2000
   22.0360   16.1460   11.0340 C   0  0  0  0  0  2  0  0  0  0  0  0
   20.6260   15.9120   10.5110 C   0  0  0  0  0  0  0  0  0  0  0  0
   20.4110   15.7510    9.3130 O   0  0  0  0  0  0  0  0  0  0  0  0
   19.6890   15.9040   11.5190 N   0  0  0  0  0  0  0  0  0  0  0  0
   19.9840   16.0750   12.4780 H   0  0  0  0  0  0  0  0  0  0  0  0
   18.3090   15.6390   11.4480 C   0  0  0  0  0  0  0  0  0  0  0  0
   17.4690   16.1230   10.4440 C   0  0  0  0  0  3  0  0  0  0  0  0
   17.7980   14.7980   12.4710 C   0  0  0  0  0  0  0  0  0  0  0  0
   16.1140   15.7810   10.4490 C   0  0  0  0  0  3  0  0  0  0  0  0
   16.4330   14.4760   12.4620 C   0  0  0  0  0  3  0  0  0  0  0  0
   15.5970   14.9610   11.4550 C   0  0  0  0  0  3  0  0  0  0  0  0
   18.6910   14.3530   13.4810 N   0  0  0  0  0  0  0  0  0  0  0  0
   19.0960   12.9330   13.4030 C   0  0  0  0  0  2  0  0  0  0  0  0
   18.1480   14.6210   14.8320 C   0  0  0  0  0  2  0  0  0  0  0  0
   18.6070   12.3030   14.7040 C   0  0  0  0  0  2  0  0  0  0  0  0
   18.6670   13.4650   15.6790 C   0  0  0  0  0  2  0  0  0  0  0  0
   22.7830   14.8560   11.2730 C   0  0  0  0  0  0  0  0  0  0  0  0
   23.4630   14.2280   10.2200 C   0  0  0  0  0  3  0  0  0  0  0  0
   22.7750   14.2490   12.5390 C   0  0  0  0  0  3  0  0  0  0  0  0
   24.1320   13.0220   10.4300 C   0  0  0  0  0  3  0  0  0  0  0  0
   23.4430   13.0330   12.7590 C   0  0  0  0  0  0  0  0  0  0  0  0
   24.1210   12.4260   11.6900 C   0  0  0  0  0  3  0  0  0  0  0  0
   23.3960   12.3650   14.1120 C   0  0  1  0  0  0  0  0  0  0  0  0
   22.1910   12.4990   14.7320 F   0  0  0  0  0  0  0  0  0  0  0  0
   23.6360   11.0210   14.0590 F   0  0  0  0  0  0  0  0  0  0  0  0
   24.3190   12.8730   14.9780 F   0  0  0  0  0  0  0  0  0  0  0  0
  1 17  1  0
  2  1  1  0
  2  4  1  0
  3  2  2  0
  4  5  1  0
  6  4  1  0
  6  8  1  0
  7  9  1  0
  7  6  2  0
  8 12  1  0
  9 11  2  0
 10  8  2  0
 11 10  1  0
 12 14  1  0
 13 12  1  0
 13 15  1  0
 14 16  1  0
 15 16  1  0
 17 19  2  0
 18 20  2  0
 18 17  1  0
 19 21  1  0
 20 22  1  0
 21 23  1  0
 22 21  2  0
 23 24  1  1
 23 26  1  0
 25 23  1  0
M  RAD  8   1   3   7   2   9   2  10   2  11   2  13   3  14   3  15   3
M  RAD  5  16   3  18   2  19   2  20   2  22   2
M  END
>  <vina_score>  (5) 
-6.9870000000000001

>  <pose_id>  (5) 
5

$$$$
