
     RDKit          3D

 23 24  0  0  1  0  0  0  0  0999 V2000
   21.2850   10.9150   17.8290 N   0  0  0  0  0  0  0  0  0  0  0  0
   22.0610   10.2620   17.7790 H   0  0  0  0  0  0  0  0  0  0  0  0
   20.8100   10.9960   19.1440 C   0  0  0  0  0  0  0  0  0  0  0  0
   19.6380   11.1590   21.7260 C   0  0  0  0  0  0  0  0  0  0  0  0
   20.6100   10.2020   21.4490 C   0  0  0  0  0  3  0  0  0  0  0  0
   19.2400   12.0220   20.7070 C   0  0  0  0  0  3  0  0  0  0  0  0
   21.1750   10.1140   20.1660 C   0  0  0  0  0  3  0  0  0  0  0  0
   19.8060   11.9310   19.4310 C   0  0  0  0  0  3  0  0  0  0  0  0
   19.0100   11.3600   22.9220 O   0  0  0  0  0  0  0  0  0  0  0  0
   17.7610   12.0470   22.9370 C   0  0  0  0  0  2  0  0  0  0  0  0
   17.2400   12.1900   24.3560 C   0  0  0  0  0  1  0  0  0  0  0  0
   20.3320   10.7730   16.7270 C   0  0  0  0  0  2  0  0  0  0  0  0
   19.5340    9.4730   16.8670 C   0  0  0  0  0  2  0  0  0  0  0  0
   18.0200    9.6970   16.8790 C   0  0  0  0  0  3  0  0  0  0  0  0
   17.3850    8.7240   16.0490 O   0  0  0  0  0  0  0  0  0  0  0  0
   16.4440    8.9640   15.9920 H   0  0  0  0  0  0  0  0  0  0  0  0
   17.4460    9.6140   18.2810 C   0  0  0  0  0  0  0  0  0  0  0  0
   16.4810   10.5420   18.7040 C   0  0  0  0  0  3  0  0  0  0  0  0
   17.8770    8.6240   19.1820 C   0  0  0  0  0  3  0  0  0  0  0  0
   15.9540   10.4750   19.9960 C   0  0  0  0  0  3  0  0  0  0  0  0
   17.3500    8.5590   20.4720 C   0  0  0  0  0  3  0  0  0  0  0  0
   16.3930    9.4850   20.8660 C   0  0  0  0  0  0  0  0  0  0  0  0
   15.8850    9.4230   22.1050 F   0  0  0  0  0  0  0  0  0  0  0  0
  1  3  1  0
  2  1  1  0
  3  8  2  0
  3  7  1  0
  4  9  1  0
  5  4  1  0
  6  4  2  0
  7  5  2  0
  8  6  1  0
  9 10  1  0
 10 11  1  0
 12 13  1  0
 12  1  1  0
 14 13  1  0
 14 17  1  0
 15 14  1  0
 16 15  1  0
 17 18  1  0
 17 19  2  0
 18 20  2  0
 19 21  1  0
 20 22  1  0
 21 22  2  0
 22 23  1  0
M  RAD  8   5   2   6   2   7   2   8   2  10   3  11   2  12   3  13   3
M  RAD  5  14   2  18   2  19   2  20   2  21   2
M  END
>  <vina_score>  (1) 
-5.6379999999999999

>  <pose_id>  (1) 
1

$$$$

     RDKit          3D

 23 24  0  0  1  0  0  0  0  0999 V2000
   22.5940   15.3060   11.5640 N   0  0  0  0  0  0  0  0  0  0  0  0
   23.2060   16.0570   11.8720 H   0  0  0  0  0  0  0  0  0  0  0  0
   23.1810   14.0650   11.8420 C   0  0  0  0  0  0  0  0  0  0  0  0
   24.1670   11.4760   12.4710 C   0  0  0  0  0  0  0  0  0  0  0  0
   24.4440   12.0590   11.2370 C   0  0  0  0  0  3  0  0  0  0  0  0
   23.3810   12.1800   13.3810 C   0  0  0  0  0  3  0  0  0  0  0  0
   23.9410   13.3320   10.9240 C   0  0  0  0  0  3  0  0  0  0  0  0
   22.8820   13.4480   13.0640 C   0  0  0  0  0  3  0  0  0  0  0  0
   24.5910   10.2550   12.9080 O   0  0  0  0  0  0  0  0  0  0  0  0
   24.5900    9.9860   14.3080 C   0  0  0  0  0  2  0  0  0  0  0  0
   25.9900   10.1090   14.8830 C   0  0  0  0  0  1  0  0  0  0  0  0
   21.9990   15.5420   10.2480 C   0  0  0  0  0  2  0  0  0  0  0  0
   20.5960   16.1380   10.3880 C   0  0  0  0  0  2  0  0  0  0  0  0
   19.6560   15.2690   11.2280 C   0  0  0  0  0  3  0  0  0  0  0  0
   19.8930   15.5110   12.6150 O   0  0  0  0  0  0  0  0  0  0  0  0
   20.0920   16.4590   12.7110 H   0  0  0  0  0  0  0  0  0  0  0  0
   18.1980   15.5400   10.9110 C   0  0  0  0  0  0  0  0  0  0  0  0
   17.1980   15.1790   11.8280 C   0  0  0  0  0  3  0  0  0  0  0  0
   17.8210   16.1390    9.6950 C   0  0  0  0  0  3  0  0  0  0  0  0
   15.8530   15.4190   11.5380 C   0  0  0  0  0  3  0  0  0  0  0  0
   16.4770   16.3780    9.4080 C   0  0  0  0  0  3  0  0  0  0  0  0
   15.5060   16.0170   10.3330 C   0  0  0  0  0  0  0  0  0  0  0  0
   14.2150   16.2470   10.0580 F   0  0  0  0  0  0  0  0  0  0  0  0
  1  3  1  0
  1  2  1  0
  3  8  2  0
  4  9  1  0
  4  6  2  0
  5  4  1  0
  7  5  2  0
  7  3  1  0
  8  6  1  0
  9 10  1  0
 10 11  1  0
 12 13  1  0
 12  1  1  0
 14 13  1  0
 14 15  1  0
 15 16  1  0
 17 14  1  0
 17 18  1  0
 19 17  2  0
 20 18  2  0
 21 19  1  0
 21 22  2  0
 22 20  1  0
 23 22  1  0
M  RAD  8   5   2   6   2   7   2   8   2  10   3  11   2  12   3  13   3
M  RAD  5  14   2  18   2  19   2  20   2  21   2
M  END
>  <vina_score>  (2) 
-5.492

>  <pose_id>  (2) 
2

$$$$

     RDKit          3D

 23 24  0  0  1  0  0  0  0  0999 V2000
   22.5600   14.9890   11.0570 N   0  0  0  0  0  0  0  0  0  0  0  0
   22.7640   14.5840   11.9670 H   0  0  0  0  0  0  0  0  0  0  0  0
   21.1780   15.1570   10.9060 C   0  0  0  0  0  0  0  0  0  0  0  0
   18.3710   15.5800   10.8090 C   0  0  0  0  0  0  0  0  0  0  0  0
   19.1930   16.0460    9.7860 C   0  0  0  0  0  3  0  0  0  0  0  0
   18.9550   14.9200   11.8880 C   0  0  0  0  0  3  0  0  0  0  0  0
   20.5820   15.8490    9.8460 C   0  0  0  0  0  3  0  0  0  0  0  0
   20.3390   14.7270   11.9430 C   0  0  0  0  0  3  0  0  0  0  0  0
   17.0130   15.6980   10.8790 O   0  0  0  0  0  0  0  0  0  0  0  0
   16.3490   15.3070   12.0790 C   0  0  0  0  0  2  0  0  0  0  0  0
   15.1240   14.4630   11.7690 C   0  0  0  0  0  1  0  0  0  0  0  0
   23.3370   14.3970    9.9670 C   0  0  0  0  0  2  0  0  0  0  0  0
   24.3110   13.3450   10.5070 C   0  0  0  0  0  2  0  0  0  0  0  0
   23.6060   12.1640   11.1790 C   0  0  0  0  0  3  0  0  0  0  0  0
   23.7570   10.9950   10.3720 O   0  0  0  0  0  0  0  0  0  0  0  0
   23.3320   10.2610   10.8480 H   0  0  0  0  0  0  0  0  0  0  0  0
   24.1550   11.8920   12.5670 C   0  0  0  0  0  0  0  0  0  0  0  0
   24.3090   12.9450   13.4830 C   0  0  0  0  0  3  0  0  0  0  0  0
   24.5310   10.5940   12.9540 C   0  0  0  0  0  3  0  0  0  0  0  0
   24.8200   12.7020   14.7600 C   0  0  0  0  0  3  0  0  0  0  0  0
   25.0420   10.3540   14.2300 C   0  0  0  0  0  3  0  0  0  0  0  0
   25.1810   11.4100   15.1210 C   0  0  0  0  0  0  0  0  0  0  0  0
   25.6700   11.1800   16.3470 F   0  0  0  0  0  0  0  0  0  0  0  0
  1  2  1  0
  3  1  1  0
  3  8  2  0
  4  9  1  0
  4  6  2  0
  5  7  2  0
  5  4  1  0
  6  8  1  0
  7  3  1  0
  9 10  1  0
 11 10  1  0
 12 13  1  0
 12  1  1  0
 14 13  1  0
 14 17  1  0
 15 16  1  0
 15 14  1  0
 17 19  2  0
 17 18  1  0
 18 20  2  0
 19 21  1  0
 20 22  1  0
 21 22  2  0
 22 23  1  0
M  RAD  8   5   2   6   2   7   2   8   2  10   3  11   2  12   3  13   3
M  RAD  5  14   2  18   2  19   2  20   2  21   2
M  END
>  <vina_score>  (3) 
-5.4889999999999999

>  <pose_id>  (3) 
3

$$$$

     RDKit          3D

 23 24  0  0  1  0  0  0  0  0999 V2000
   21.5680   10.8570   17.8260 N   0  0  0  0  0  0  0  0  0  0  0  0
   21.6250   11.7720   17.3870 H   0  0  0  0  0  0  0  0  0  0  0  0
   20.8440   10.9440   19.0230 C   0  0  0  0  0  0  0  0  0  0  0  0
   19.5670   11.1950   21.5470 C   0  0  0  0  0  0  0  0  0  0  0  0
   18.9960   11.7510   20.4060 C   0  0  0  0  0  3  0  0  0  0  0  0
   20.7860   10.5300   21.4280 C   0  0  0  0  0  3  0  0  0  0  0  0
   19.6390   11.6390   19.1630 C   0  0  0  0  0  3  0  0  0  0  0  0
   21.4220   10.4210   20.1870 C   0  0  0  0  0  3  0  0  0  0  0  0
   19.0550   11.2240   22.8120 O   0  0  0  0  0  0  0  0  0  0  0  0
   17.6470   11.3750   22.9820 C   0  0  0  0  0  2  0  0  0  0  0  0
   17.3390   12.4570   24.0030 C   0  0  0  0  0  1  0  0  0  0  0  0
   22.8300   10.1170   17.8000 C   0  0  0  0  0  2  0  0  0  0  0  0
   23.7600   10.6720   16.7180 C   0  0  0  0  0  2  0  0  0  0  0  0
   23.6100    9.9560   15.3730 C   0  0  0  0  0  3  0  0  0  0  0  0
   22.2850    9.4380   15.2520 O   0  0  0  0  0  0  0  0  0  0  0  0
   21.6810   10.1990   15.2180 H   0  0  0  0  0  0  0  0  0  0  0  0
   23.8990   10.8790   14.2040 C   0  0  0  0  0  0  0  0  0  0  0  0
   24.1680   10.3450   12.9340 C   0  0  0  0  0  3  0  0  0  0  0  0
   23.9170   12.2750   14.3720 C   0  0  0  0  0  3  0  0  0  0  0  0
   24.4420   11.1900   11.8550 C   0  0  0  0  0  3  0  0  0  0  0  0
   24.1910   13.1160   13.2940 C   0  0  0  0  0  3  0  0  0  0  0  0
   24.4500   12.5660   12.0460 C   0  0  0  0  0  0  0  0  0  0  0  0
   24.7110   13.3730   11.0090 F   0  0  0  0  0  0  0  0  0  0  0  0
  1  3  1  0
  2  1  1  0
  3  7  1  0
  3  8  2  0
  4  9  1  0
  5  4  1  0
  6  4  2  0
  7  5  2  0
  8  6  1  0
  9 10  1  0
 10 11  1  0
 12  1  1  0
 13 12  1  0
 14 13  1  0
 15 14  1  0
 16 15  1  0
 17 19  2  0
 17 14  1  0
 18 17  1  0
 20 22  1  0
 20 18  2  0
 21 19  1  0
 22 21  2  0
 23 22  1  0
M  RAD  8   5   2   6   2   7   2   8   2  10   3  11   2  12   3  13   3
M  RAD  5  14   2  18   2  19   2  20   2  21   2
M  END
>  <vina_score>  (4) 
-5.298

>  <pose_id>  (4) 
4

$$$$

     RDKit          3D

 23 24  0  0  1  0  0  0  0  0999 V2000
   16.4910   12.3740   15.5860 N   0  0  0  0  0  0  0  0  0  0  0  0
   16.8610   11.5330   15.1520 H   0  0  0  0  0  0  0  0  0  0  0  0
   16.2410   13.3480   14.6100 C   0  0  0  0  0  0  0  0  0  0  0  0
   15.9580   15.3500   12.6160 C   0  0  0  0  0  0  0  0  0  0  0  0
   15.3130   14.1240   12.4850 C   0  0  0  0  0  3  0  0  0  0  0  0
   16.7600   15.5670   13.7350 C   0  0  0  0  0  3  0  0  0  0  0  0
   15.4680   13.1310   13.4650 C   0  0  0  0  0  3  0  0  0  0  0  0
   16.9120   14.5740   14.7090 C   0  0  0  0  0  3  0  0  0  0  0  0
   15.8940   16.4020   11.7480 O   0  0  0  0  0  0  0  0  0  0  0  0
   15.7470   16.1380   10.3550 C   0  0  0  0  0  2  0  0  0  0  0  0
   17.1020   16.0830    9.6700 C   0  0  0  0  0  1  0  0  0  0  0  0
   17.1880   12.7510   16.8170 C   0  0  0  0  0  2  0  0  0  0  0  0
   17.0100   11.6740   17.8910 C   0  0  0  0  0  2  0  0  0  0  0  0
   18.2810   11.4250   18.7070 C   0  0  0  0  0  3  0  0  0  0  0  0
   19.2190   12.4740   18.4630 O   0  0  0  0  0  0  0  0  0  0  0  0
   20.1060   12.1090   18.6250 H   0  0  0  0  0  0  0  0  0  0  0  0
   17.9930   11.3430   20.1940 C   0  0  0  0  0  0  0  0  0  0  0  0
   16.7460   10.8800   20.6460 C   0  0  0  0  0  3  0  0  0  0  0  0
   18.9550   11.7400   21.1400 C   0  0  0  0  0  3  0  0  0  0  0  0
   16.4730   10.8090   22.0140 C   0  0  0  0  0  3  0  0  0  0  0  0
   18.6780   11.6680   22.5060 C   0  0  0  0  0  3  0  0  0  0  0  0
   17.4410   11.2030   22.9290 C   0  0  0  0  0  0  0  0  0  0  0  0
   17.1750   11.1330   24.2410 F   0  0  0  0  0  0  0  0  0  0  0  0
  1 12  1  0
  2  1  1  0
  3  8  2  0
  3  1  1  0
  4  6  2  0
  5  4  1  0
  5  7  2  0
  6  8  1  0
  7  3  1  0
  9  4  1  0
 10  9  1  0
 11 10  1  0
 12 13  1  0
 14 13  1  0
 14 17  1  0
 15 16  1  0
 15 14  1  0
 17 18  1  0
 17 19  2  0
 18 20  2  0
 19 21  1  0
 20 22  1  0
 21 22  2  0
 22 23  1  0
M  RAD  8   5   2   6   2   7   2   8   2  10   3  11   2  12   3  13   3
M  RAD  5  14   2  18   2  19   2  20   2  21   2
M  END
>  <vina_score>  (5) 
-5.2389999999999999

>  <pose_id>  (5) 
5

$$$$
