
     RDKit          3D

 25 27  0  0  1  0  0  0  0  0999 V2000
   18.8150   13.1380   15.2330 C   0  0  0  0  0  2  0  0  0  0  0  0
   18.4670   13.3110   13.7430 C   0  0  0  0  0  0  0  0  0  0  0  0
   18.5970   14.6140   13.2990 N   0  0  0  0  0  0  0  0  0  0  0  0
   18.1440   12.3340   13.0730 O   0  0  0  0  0  0  0  0  0  0  0  0
   18.5510   15.2930   14.0490 H   0  0  0  0  0  0  0  0  0  0  0  0
   18.3920   15.1120   11.9900 C   0  0  0  0  0  0  0  0  0  0  0  0
   19.5470   15.3020   11.1880 C   0  0  0  0  0  0  0  0  0  0  0  0
   19.4200   15.8270    9.8910 C   0  0  0  0  0  3  0  0  0  0  0  0
   18.1720   16.1530    9.3780 C   0  0  0  0  0  3  0  0  0  0  0  0
   17.1200   15.3700   11.4360 C   0  0  0  0  0  0  0  0  0  0  0  0
   17.0340   15.9230   10.1420 C   0  0  0  0  0  3  0  0  0  0  0  0
   20.9380   14.9910   11.6830 C   0  0  0  0  0  1  0  0  0  0  0  0
   15.8110   15.0450   12.1040 C   0  0  0  0  0  1  0  0  0  0  0  0
   17.6540   12.8740   16.0990 N   0  0  0  0  0  0  0  0  0  0  0  0
   16.6450   13.9240   16.1580 C   0  0  0  0  0  1  0  0  0  0  0  0
   17.4510   11.6960   16.8140 C   0  0  0  0  0  0  0  0  0  0  0  0
   17.3540   10.6080   16.2480 O   0  0  0  0  0  0  0  0  0  0  0  0
   17.3380   11.8170   18.3310 C   0  0  0  0  0  2  0  0  0  0  0  0
   18.4500   11.0700   19.0710 C   0  0  0  0  0  3  0  0  0  0  0  0
   19.4250   11.9910   19.8370 C   0  0  0  0  0  2  0  0  0  0  0  0
   17.9620   10.1080   20.1850 C   0  0  0  0  0  3  0  0  0  0  0  0
   19.4260   11.3950   21.2570 C   0  0  0  0  0  3  0  0  0  0  0  0
   17.0880   10.8350   21.2220 C   0  0  0  0  0  2  0  0  0  0  0  0
   19.2540    9.9030   20.9800 C   0  0  0  0  0  2  0  0  0  0  0  0
   18.0920   11.7470   21.9380 C   0  0  0  0  0  2  0  0  0  0  0  0
  1 14  1  0
  2  1  1  0
  3  2  1  0
  3  5  1  0
  4  2  2  0
  6  3  1  0
  7 12  1  0
  7  6  2  0
  8  7  1  0
  9  8  2  0
  9 11  1  0
 10  6  1  0
 10 13  1  0
 11 10  2  0
 14 15  1  0
 14 16  1  0
 16 18  1  0
 17 16  2  0
 19 18  1  0
 19 20  1  0
 19 21  1  0
 21 24  1  0
 21 23  1  0
 22 20  1  0
 22 25  1  0
 23 25  1  0
 24 22  1  0
M  RAD  8   1   3   8   2   9   2  11   2  12   2  13   2  15   2  18   3
M  RAD  7  19   2  20   3  21   2  22   2  23   3  24   3  25   3
M  END
>  <vina_score>  (1) 
-7.3490000000000002

>  <pose_id>  (1) 
1

$$$$

     RDKit          3D

 25 27  0  0  1  0  0  0  0  0999 V2000
   19.1840   13.5700   14.8430 C   0  0  0  0  0  2  0  0  0  0  0  0
   18.3410   14.5950   14.0620 C   0  0  0  0  0  0  0  0  0  0  0  0
   18.1800   14.2670   12.7280 N   0  0  0  0  0  0  0  0  0  0  0  0
   17.8660   15.5660   14.6430 O   0  0  0  0  0  0  0  0  0  0  0  0
   18.8960   13.6360   12.3880 H   0  0  0  0  0  0  0  0  0  0  0  0
   17.4420   14.9650   11.7420 C   0  0  0  0  0  0  0  0  0  0  0  0
   18.1880   15.6330   10.7370 C   0  0  0  0  0  0  0  0  0  0  0  0
   17.5200   16.3740    9.7470 C   0  0  0  0  0  3  0  0  0  0  0  0
   16.1350   16.4520    9.7340 C   0  0  0  0  0  3  0  0  0  0  0  0
   16.0320   14.9810   11.6790 C   0  0  0  0  0  0  0  0  0  0  0  0
   15.3990   15.7590   10.6880 C   0  0  0  0  0  3  0  0  0  0  0  0
   19.6960   15.6120   10.6970 C   0  0  0  0  0  1  0  0  0  0  0  0
   15.1240   14.1750   12.5660 C   0  0  0  0  0  1  0  0  0  0  0  0
   19.0110   12.1770   14.3960 N   0  0  0  0  0  0  0  0  0  0  0  0
   17.8490   11.4740   14.9250 C   0  0  0  0  0  1  0  0  0  0  0  0
   19.8470   11.5250   13.4930 C   0  0  0  0  0  0  0  0  0  0  0  0
   19.3940   10.8410   12.5760 O   0  0  0  0  0  0  0  0  0  0  0  0
   21.3500   11.6860   13.7000 C   0  0  0  0  0  2  0  0  0  0  0  0
   22.1090   11.9270   12.3940 C   0  0  0  0  0  3  0  0  0  0  0  0
   22.3000   13.4190   12.0440 C   0  0  0  0  0  2  0  0  0  0  0  0
   23.5640   11.3940   12.3750 C   0  0  0  0  0  3  0  0  0  0  0  0
   23.8160   13.5280   11.7980 C   0  0  0  0  0  3  0  0  0  0  0  0
   24.3960   11.9700   13.5350 C   0  0  0  0  0  2  0  0  0  0  0  0
   24.1420   12.1680   11.1870 C   0  0  0  0  0  2  0  0  0  0  0  0
   24.5400   13.4490   13.1540 C   0  0  0  0  0  2  0  0  0  0  0  0
  2  4  2  0
  2  1  1  0
  3  2  1  0
  5  3  1  0
  6  3  1  0
  7  6  2  0
  8  7  1  0
  9  8  2  0
  9 11  1  0
 10  6  1  0
 10 13  1  0
 11 10  2  0
 12  7  1  0
 14  1  1  0
 14 15  1  0
 16 18  1  0
 16 14  1  0
 17 16  2  0
 19 18  1  0
 20 19  1  0
 21 24  1  0
 21 19  1  0
 21 23  1  0
 22 24  1  0
 22 20  1  0
 22 25  1  0
 25 23  1  0
M  RAD  8   1   3   8   2   9   2  11   2  12   2  13   2  15   2  18   3
M  RAD  7  19   2  20   3  21   2  22   2  23   3  24   3  25   3
M  END
>  <vina_score>  (2) 
-7.2969999999999997

>  <pose_id>  (2) 
2

$$$$

     RDKit          3D

 25 27  0  0  1  0  0  0  0  0999 V2000
   19.3540   11.6930   14.5900 C   0  0  0  0  0  2  0  0  0  0  0  0
   19.9590   12.1640   13.2550 C   0  0  0  0  0  0  0  0  0  0  0  0
   20.1830   13.5280   13.2070 N   0  0  0  0  0  0  0  0  0  0  0  0
   20.2210   11.3440   12.3790 O   0  0  0  0  0  0  0  0  0  0  0  0
   19.6160   14.0440   13.8690 H   0  0  0  0  0  0  0  0  0  0  0  0
   20.7540   14.2800   12.1530 C   0  0  0  0  0  0  0  0  0  0  0  0
   19.8710   15.0860   11.3880 C   0  0  0  0  0  0  0  0  0  0  0  0
   20.3650   15.8320   10.3050 C   0  0  0  0  0  3  0  0  0  0  0  0
   21.7130   15.7990    9.9800 C   0  0  0  0  0  3  0  0  0  0  0  0
   22.1360   14.3120   11.8670 C   0  0  0  0  0  0  0  0  0  0  0  0
   22.5890   15.0500   10.7550 C   0  0  0  0  0  3  0  0  0  0  0  0
   18.3900   15.1560   11.6690 C   0  0  0  0  0  1  0  0  0  0  0  0
   23.2000   13.6540   12.7030 C   0  0  0  0  0  1  0  0  0  0  0  0
   18.1000   10.9340   14.4520 N   0  0  0  0  0  0  0  0  0  0  0  0
   18.0840    9.6060   15.0540 C   0  0  0  0  0  1  0  0  0  0  0  0
   16.9480   11.4140   13.8340 C   0  0  0  0  0  0  0  0  0  0  0  0
   16.6270   11.0520   12.7020 O   0  0  0  0  0  0  0  0  0  0  0  0
   16.1090   12.4190   14.6160 C   0  0  0  0  0  2  0  0  0  0  0  0
   16.5330   13.8690   14.3690 C   0  0  0  0  0  3  0  0  0  0  0  0
   15.4060   14.7670   13.8110 C   0  0  0  0  0  2  0  0  0  0  0  0
   16.9780   14.6450   15.6340 C   0  0  0  0  0  3  0  0  0  0  0  0
   15.4060   15.9650   14.7780 C   0  0  0  0  0  3  0  0  0  0  0  0
   15.8890   14.6340   16.7210 C   0  0  0  0  0  2  0  0  0  0  0  0
   16.8850   16.0900   15.1380 C   0  0  0  0  0  2  0  0  0  0  0  0
   14.7900   15.5180   16.1150 C   0  0  0  0  0  2  0  0  0  0  0  0
  2  1  1  0
  3  2  1  0
  3  5  1  0
  4  2  2  0
  6  3  1  0
  7 12  1  0
  7  6  2  0
  8  7  1  0
  9  8  2  0
  9 11  1  0
 10  6  1  0
 10 13  1  0
 11 10  2  0
 14  1  1  0
 14 15  1  0
 16 14  1  0
 16 18  1  0
 17 16  2  0
 19 18  1  0
 19 21  1  0
 20 19  1  0
 21 24  1  0
 21 23  1  0
 22 20  1  0
 22 24  1  0
 22 25  1  0
 25 23  1  0
M  RAD  8   1   3   8   2   9   2  11   2  12   2  13   2  15   2  18   3
M  RAD  7  19   2  20   3  21   2  22   2  23   3  24   3  25   3
M  END
>  <vina_score>  (3) 
-7.2629999999999999

>  <pose_id>  (3) 
3

$$$$

     RDKit          3D

 25 27  0  0  1  0  0  0  0  0999 V2000
   19.6820   12.8920   14.8600 C   0  0  0  0  0  2  0  0  0  0  0  0
   18.7310   13.0520   13.6600 C   0  0  0  0  0  0  0  0  0  0  0  0
   18.4580   14.3720   13.3500 N   0  0  0  0  0  0  0  0  0  0  0  0
   18.3240   12.0580   13.0660 O   0  0  0  0  0  0  0  0  0  0  0  0
   18.6150   15.0010   14.1300 H   0  0  0  0  0  0  0  0  0  0  0  0
   17.6580   14.8720   12.2950 C   0  0  0  0  0  0  0  0  0  0  0  0
   18.3400   15.3820   11.1600 C   0  0  0  0  0  0  0  0  0  0  0  0
   17.6100   15.9260   10.0900 C   0  0  0  0  0  3  0  0  0  0  0  0
   16.2230   15.9600   10.1260 C   0  0  0  0  0  3  0  0  0  0  0  0
   16.2470   14.8380   12.2920 C   0  0  0  0  0  0  0  0  0  0  0  0
   15.5500   15.4180   11.2140 C   0  0  0  0  0  3  0  0  0  0  0  0
   19.8460   15.3970   11.0580 C   0  0  0  0  0  1  0  0  0  0  0  0
   15.4030   14.1670   13.3410 C   0  0  0  0  0  1  0  0  0  0  0  0
   19.1850   11.9850   15.9090 N   0  0  0  0  0  0  0  0  0  0  0  0
   19.5770   10.5870   15.7850 C   0  0  0  0  0  1  0  0  0  0  0  0
   18.4190   12.3820   17.0020 C   0  0  0  0  0  0  0  0  0  0  0  0
   17.3490   12.9720   16.8570 O   0  0  0  0  0  0  0  0  0  0  0  0
   18.9740   12.0660   18.3880 C   0  0  0  0  0  2  0  0  0  0  0  0
   18.2170   10.9340   19.0870 C   0  0  0  0  0  3  0  0  0  0  0  0
   19.0990    9.7170   19.4450 C   0  0  0  0  0  2  0  0  0  0  0  0
   17.6010   11.3100   20.4590 C   0  0  0  0  0  3  0  0  0  0  0  0
   18.8150    9.5100   20.9440 C   0  0  0  0  0  3  0  0  0  0  0  0
   18.6620   11.8600   21.4280 C   0  0  0  0  0  2  0  0  0  0  0  0
   17.3490    9.9220   21.0550 C   0  0  0  0  0  2  0  0  0  0  0  0
   19.5190   10.6250   21.7360 C   0  0  0  0  0  2  0  0  0  0  0  0
  1 14  1  0
  2  1  1  0
  3  2  1  0
  3  5  1  0
  4  2  2  0
  6  3  1  0
  7  6  2  0
  8  9  2  0
  8  7  1  0
  9 11  1  0
 10  6  1  0
 10 13  1  0
 11 10  2  0
 12  7  1  0
 14 16  1  0
 15 14  1  0
 16 18  1  0
 17 16  2  0
 19 18  1  0
 19 20  1  0
 19 21  1  0
 21 24  1  0
 21 23  1  0
 22 20  1  0
 22 24  1  0
 22 25  1  0
 23 25  1  0
M  RAD  8   1   3   8   2   9   2  11   2  12   2  13   2  15   2  18   3
M  RAD  7  19   2  20   3  21   2  22   2  23   3  24   3  25   3
M  END
>  <vina_score>  (4) 
-7.2359999999999998

>  <pose_id>  (4) 
4

$$$$

     RDKit          3D

 25 27  0  0  1  0  0  0  0  0999 V2000
   21.1570   13.7310   13.7520 C   0  0  0  0  0  2  0  0  0  0  0  0
   19.8600   13.7220   12.9240 C   0  0  0  0  0  0  0  0  0  0  0  0
   19.4550   14.9840   12.5280 N   0  0  0  0  0  0  0  0  0  0  0  0
   19.3130   12.6560   12.6540 O   0  0  0  0  0  0  0  0  0  0  0  0
   19.8380   15.7210   13.1080 H   0  0  0  0  0  0  0  0  0  0  0  0
   18.3350   15.3310   11.7350 C   0  0  0  0  0  0  0  0  0  0  0  0
   18.5970   15.7390   10.4010 C   0  0  0  0  0  0  0  0  0  0  0  0
   17.5350   16.1310    9.5680 C   0  0  0  0  0  3  0  0  0  0  0  0
   16.2280   16.1120   10.0320 C   0  0  0  0  0  3  0  0  0  0  0  0
   16.9980   15.2380   12.1760 C   0  0  0  0  0  0  0  0  0  0  0  0
   15.9620   15.6670   11.3210 C   0  0  0  0  0  3  0  0  0  0  0  0
   19.9930   15.8050    9.8320 C   0  0  0  0  0  1  0  0  0  0  0  0
   16.5680   14.6540   13.4940 C   0  0  0  0  0  1  0  0  0  0  0  0
   22.3860   13.5710   12.9550 N   0  0  0  0  0  0  0  0  0  0  0  0
   22.9800   14.7980   12.4400 C   0  0  0  0  0  1  0  0  0  0  0  0
   23.0160   12.3540   12.7070 C   0  0  0  0  0  0  0  0  0  0  0  0
   22.6130   11.5870   11.8330 O   0  0  0  0  0  0  0  0  0  0  0  0
   24.2200   12.0080   13.5770 C   0  0  0  0  0  2  0  0  0  0  0  0
   23.8770   11.0370   14.7090 C   0  0  0  0  0  3  0  0  0  0  0  0
   24.2070    9.5610   14.3940 C   0  0  0  0  0  2  0  0  0  0  0  0
   24.6520   11.2740   16.0310 C   0  0  0  0  0  3  0  0  0  0  0  0
   25.0560    9.1280   15.6030 C   0  0  0  0  0  3  0  0  0  0  0  0
   26.1740   11.2470   15.8100 C   0  0  0  0  0  2  0  0  0  0  0  0
   24.4340    9.9350   16.7400 C   0  0  0  0  0  2  0  0  0  0  0  0
   26.4480    9.7730   15.4820 C   0  0  0  0  0  2  0  0  0  0  0  0
  2  1  1  0
  3  2  1  0
  3  5  1  0
  4  2  2  0
  6 10  1  0
  6  3  1  0
  7  6  2  0
  8  9  2  0
  8  7  1  0
  9 11  1  0
 10 13  1  0
 11 10  2  0
 12  7  1  0
 14  1  1  0
 15 14  1  0
 16 14  1  0
 16 18  1  0
 17 16  2  0
 19 18  1  0
 19 21  1  0
 20 19  1  0
 21 23  1  0
 21 24  1  0
 22 20  1  0
 22 24  1  0
 25 22  1  0
 25 23  1  0
M  RAD  8   1   3   8   2   9   2  11   2  12   2  13   2  15   2  18   3
M  RAD  7  19   2  20   3  21   2  22   2  23   3  24   3  25   3
M  END
>  <vina_score>  (5) 
-7.0780000000000003

>  <pose_id>  (5) 
5

$$$$
