
     RDKit          3D

 23 25  0  0  1  0  0  0  0  0999 V2000
   17.3860   10.8630   18.4080 C   0  0  0  0  0  3  0  0  0  0  0  0
   17.4260   11.1140   19.9140 C   0  0  0  0  0  0  0  0  0  0  0  0
   17.4280   11.4910   22.7180 C   0  0  0  0  0  0  0  0  0  0  0  0
   16.3180   10.9310   22.0800 C   0  0  0  0  0  3  0  0  0  0  0  0
   18.5300   11.8760   21.9470 C   0  0  0  0  0  3  0  0  0  0  0  0
   16.3200   10.7390   20.6960 C   0  0  0  0  0  3  0  0  0  0  0  0
   18.5320   11.6830   20.5620 C   0  0  0  0  0  3  0  0  0  0  0  0
   17.4140   11.7330   24.1980 C   0  0  0  0  0  1  0  0  0  0  0  0
   17.4990   12.1550   17.5480 C   0  0  0  0  0  0  0  0  0  0  0  0
   18.5600   12.7710   17.4370 O   0  0  0  0  0  0  0  0  0  0  0  0
   16.3570   12.5490   16.8770 N   0  0  0  0  0  0  0  0  0  0  0  0
   15.4930   12.1480   17.2140 H   0  0  0  0  0  0  0  0  0  0  0  0
   16.3000   13.7920   16.1430 C   0  0  0  0  0  3  0  0  0  0  0  0
   15.7320   13.6130   14.7420 C   0  0  0  0  0  2  0  0  0  0  0  0
   15.3530   14.8130   16.7760 C   0  0  0  0  0  2  0  0  0  0  0  0
   15.3680   15.0340   14.3390 C   0  0  0  0  0  2  0  0  0  0  0  0
   14.8660   15.6910   15.6230 C   0  0  0  0  0  2  0  0  0  0  0  0
   18.2960    9.7740   17.9830 N   0  0  0  0  0  0  0  0  0  0  0  0
   18.4430    8.6530   18.8950 C   0  0  0  0  0  2  0  0  0  0  0  0
   18.4970    9.5300   16.5610 C   0  0  0  0  0  2  0  0  0  0  0  0
   19.7380    7.8960   18.5960 C   0  0  0  0  0  2  0  0  0  0  0  0
   18.7780    8.0590   16.2450 C   0  0  0  0  0  2  0  0  0  0  0  0
   19.8760    7.4820   17.1300 C   0  0  0  0  0  2  0  0  0  0  0  0
  1  9  1  0
  1  2  1  0
  2  7  2  0
  2  6  1  0
  3  8  1  0
  4  3  1  0
  5  3  2  0
  6  4  2  0
  7  5  1  0
 10  9  2  0
 11 12  1  0
 11  9  1  0
 13 15  1  0
 13 11  1  0
 14 13  1  0
 16 14  1  0
 16 17  1  0
 17 15  1  0
 18  1  1  0
 18 19  1  0
 20 18  1  0
 21 19  1  0
 22 20  1  0
 22 23  1  0
 23 21  1  0
M  RAD  8   1   2   4   2   5   2   6   2   7   2   8   2  13   2  14   3
M  RAD  8  15   3  16   3  17   3  19   3  20   3  21   3  22   3  23   3
M  END
>  <vina_score>  (1) 
-6.6719999999999997

>  <pose_id>  (1) 
1

$$$$

     RDKit          3D

 23 25  0  0  1  0  0  0  0  0999 V2000
   18.6700   10.3170   18.1510 C   0  0  0  0  0  3  0  0  0  0  0  0
   18.2670   10.6890   19.5770 C   0  0  0  0  0  0  0  0  0  0  0  0
   17.4830   11.2700   22.2320 C   0  0  0  0  0  0  0  0  0  0  0  0
   16.8200   10.2810   21.4990 C   0  0  0  0  0  3  0  0  0  0  0  0
   18.5270   11.9760   21.6270 C   0  0  0  0  0  3  0  0  0  0  0  0
   17.2130    9.9900   20.1900 C   0  0  0  0  0  3  0  0  0  0  0  0
   18.9210   11.6840   20.3180 C   0  0  0  0  0  3  0  0  0  0  0  0
   17.0400   11.6110   23.6240 C   0  0  0  0  0  1  0  0  0  0  0  0
   17.8050   10.9970   17.0510 C   0  0  0  0  0  0  0  0  0  0  0  0
   17.3420   10.3620   16.1020 O   0  0  0  0  0  0  0  0  0  0  0  0
   17.5440   12.3430   17.2190 N   0  0  0  0  0  0  0  0  0  0  0  0
   18.1520   12.8280   17.8640 H   0  0  0  0  0  0  0  0  0  0  0  0
   16.8550   13.1140   16.2110 C   0  0  0  0  0  3  0  0  0  0  0  0
   15.7720   14.0080   16.8010 C   0  0  0  0  0  2  0  0  0  0  0  0
   17.7710   14.1040   15.4900 C   0  0  0  0  0  2  0  0  0  0  0  0
   15.5010   14.9980   15.6800 C   0  0  0  0  0  2  0  0  0  0  0  0
   16.8630   15.2470   15.0360 C   0  0  0  0  0  2  0  0  0  0  0  0
   20.1300   10.4220   17.9210 N   0  0  0  0  0  0  0  0  0  0  0  0
   20.9790    9.5350   18.6980 C   0  0  0  0  0  2  0  0  0  0  0  0
   20.6150   10.8680   16.6230 C   0  0  0  0  0  2  0  0  0  0  0  0
   22.4060   10.0810   18.7490 C   0  0  0  0  0  2  0  0  0  0  0  0
   21.9640   10.2520   16.2480 C   0  0  0  0  0  2  0  0  0  0  0  0
   22.9890   10.3910   17.3680 C   0  0  0  0  0  2  0  0  0  0  0  0
  1  9  1  0
  1  2  1  0
  2  6  1  0
  2  7  2  0
  3  8  1  0
  4  3  1  0
  5  3  2  0
  6  4  2  0
  7  5  1  0
  9 11  1  0
 10  9  2  0
 11 12  1  0
 13 14  1  0
 13 11  1  0
 15 13  1  0
 16 14  1  0
 17 15  1  0
 17 16  1  0
 18  1  1  0
 18 19  1  0
 19 21  1  0
 20 18  1  0
 22 20  1  0
 22 23  1  0
 23 21  1  0
M  RAD  8   1   2   4   2   5   2   6   2   7   2   8   2  13   2  14   3
M  RAD  8  15   3  16   3  17   3  19   3  20   3  21   3  22   3  23   3
M  END
>  <vina_score>  (2) 
-6.4909999999999997

>  <pose_id>  (2) 
2

$$$$

     RDKit          3D

 23 25  0  0  1  0  0  0  0  0999 V2000
   20.1280   13.5140   14.0580 C   0  0  0  0  0  3  0  0  0  0  0  0
   21.3360   13.3760   13.1330 C   0  0  0  0  0  0  0  0  0  0  0  0
   23.6170   13.2180   11.4660 C   0  0  0  0  0  0  0  0  0  0  0  0
   23.1540   14.4580   11.9170 C   0  0  0  0  0  3  0  0  0  0  0  0
   22.9260   12.0610   11.8390 C   0  0  0  0  0  3  0  0  0  0  0  0
   22.0320   14.5340   12.7460 C   0  0  0  0  0  3  0  0  0  0  0  0
   21.8030   12.1380   12.6690 C   0  0  0  0  0  3  0  0  0  0  0  0
   24.7980   13.1360   10.5450 C   0  0  0  0  0  1  0  0  0  0  0  0
   19.1230   14.6200   13.6250 C   0  0  0  0  0  0  0  0  0  0  0  0
   18.7120   15.4700   14.4170 O   0  0  0  0  0  0  0  0  0  0  0  0
   18.7520   14.6280   12.2950 N   0  0  0  0  0  0  0  0  0  0  0  0
   18.9290   13.7720   11.7880 H   0  0  0  0  0  0  0  0  0  0  0  0
   17.7380   15.5270   11.7950 C   0  0  0  0  0  3  0  0  0  0  0  0
   17.8480   15.7490   10.2930 C   0  0  0  0  0  2  0  0  0  0  0  0
   16.3210   14.9790   11.9650 C   0  0  0  0  0  2  0  0  0  0  0  0
   16.4910   16.3360    9.9360 C   0  0  0  0  0  2  0  0  0  0  0  0
   15.4990   15.6130   10.8430 C   0  0  0  0  0  2  0  0  0  0  0  0
   19.4940   12.2120   14.3710 N   0  0  0  0  0  0  0  0  0  0  0  0
   19.8030   11.6300   15.6660 C   0  0  0  0  0  2  0  0  0  0  0  0
   18.2150   11.8790   13.7600 C   0  0  0  0  0  2  0  0  0  0  0  0
   19.5220   10.1270   15.6490 C   0  0  0  0  0  2  0  0  0  0  0  0
   17.3460   10.9860   14.6480 C   0  0  0  0  0  2  0  0  0  0  0  0
   18.1130    9.7760   15.1700 C   0  0  0  0  0  2  0  0  0  0  0  0
  1  9  1  0
  1 18  1  0
  2  1  1  0
  3  5  2  0
  3  4  1  0
  4  6  2  0
  5  7  1  0
  6  2  1  0
  7  2  2  0
  8  3  1  0
  9 10  2  0
 11  9  1  0
 12 11  1  0
 13 15  1  0
 13 11  1  0
 14 13  1  0
 16 14  1  0
 16 17  1  0
 17 15  1  0
 18 19  1  0
 20 18  1  0
 20 22  1  0
 21 19  1  0
 22 23  1  0
 23 21  1  0
M  RAD  8   1   2   4   2   5   2   6   2   7   2   8   2  13   2  14   3
M  RAD  8  15   3  16   3  17   3  19   3  20   3  21   3  22   3  23   3
M  END
>  <vina_score>  (3) 
-6.4109999999999996

>  <pose_id>  (3) 
3

$$$$

     RDKit          3D

 23 25  0  0  1  0  0  0  0  0999 V2000
   18.6000   12.4890   16.4960 C   0  0  0  0  0  3  0  0  0  0  0  0
   18.2290   12.0270   17.9040 C   0  0  0  0  0  0  0  0  0  0  0  0
   17.6230   11.2440   20.5540 C   0  0  0  0  0  0  0  0  0  0  0  0
   18.9080   11.6810   20.2220 C   0  0  0  0  0  3  0  0  0  0  0  0
   16.6480   11.1850   19.5530 C   0  0  0  0  0  3  0  0  0  0  0  0
   19.2050   12.0750   18.9150 C   0  0  0  0  0  3  0  0  0  0  0  0
   16.9450   11.5800   18.2450 C   0  0  0  0  0  3  0  0  0  0  0  0
   17.3110   10.7850   21.9480 C   0  0  0  0  0  1  0  0  0  0  0  0
   19.6850   11.6110   15.8080 C   0  0  0  0  0  0  0  0  0  0  0  0
   19.7490   10.3940   15.9900 O   0  0  0  0  0  0  0  0  0  0  0  0
   20.5450   12.2610   14.9430 N   0  0  0  0  0  0  0  0  0  0  0  0
   20.5870   13.2650   15.0440 H   0  0  0  0  0  0  0  0  0  0  0  0
   21.6660   11.5820   14.3360 C   0  0  0  0  0  3  0  0  0  0  0  0
   21.7750   11.8620   12.8430 C   0  0  0  0  0  2  0  0  0  0  0  0
   23.0150   12.0560   14.8800 C   0  0  0  0  0  2  0  0  0  0  0  0
   23.1980   11.4340   12.5210 C   0  0  0  0  0  2  0  0  0  0  0  0
   24.0160   11.8300   13.7480 C   0  0  0  0  0  2  0  0  0  0  0  0
   17.4150   12.7570   15.6490 N   0  0  0  0  0  0  0  0  0  0  0  0
   17.1010   14.1510   15.3860 C   0  0  0  0  0  2  0  0  0  0  0  0
   17.0090   11.7670   14.6600 C   0  0  0  0  0  2  0  0  0  0  0  0
   15.6380   14.2920   14.9650 C   0  0  0  0  0  2  0  0  0  0  0  0
   16.3510   12.3920   13.4290 C   0  0  0  0  0  2  0  0  0  0  0  0
   15.2470   13.3740   13.8050 C   0  0  0  0  0  2  0  0  0  0  0  0
  1  9  1  0
  1  2  1  0
  2  7  2  0
  2  6  1  0
  3  8  1  0
  4  3  1  0
  5  3  2  0
  6  4  2  0
  7  5  1  0
  9 10  2  0
 11 12  1  0
 11  9  1  0
 13 15  1  0
 13 11  1  0
 14 13  1  0
 16 14  1  0
 16 17  1  0
 17 15  1  0
 18  1  1  0
 19 18  1  0
 20 18  1  0
 21 19  1  0
 22 23  1  0
 22 20  1  0
 23 21  1  0
M  RAD  8   1   2   4   2   5   2   6   2   7   2   8   2  13   2  14   3
M  RAD  8  15   3  16   3  17   3  19   3  20   3  21   3  22   3  23   3
M  END
>  <vina_score>  (4) 
-6.3929999999999998

>  <pose_id>  (4) 
4

$$$$

     RDKit          3D

 23 25  0  0  1  0  0  0  0  0999 V2000
   23.3120   11.9100   14.6530 C   0  0  0  0  0  3  0  0  0  0  0  0
   23.4640   12.5710   13.2840 C   0  0  0  0  0  0  0  0  0  0  0  0
   23.7780   13.6930   10.7060 C   0  0  0  0  0  0  0  0  0  0  0  0
   24.5420   12.5890   11.0950 C   0  0  0  0  0  3  0  0  0  0  0  0
   22.8690   14.2430   11.6160 C   0  0  0  0  0  3  0  0  0  0  0  0
   24.3810   12.0310   12.3660 C   0  0  0  0  0  3  0  0  0  0  0  0
   22.7080   13.6840   12.8880 C   0  0  0  0  0  3  0  0  0  0  0  0
   23.9750   14.3180    9.3560 C   0  0  0  0  0  1  0  0  0  0  0  0
   21.9330   11.2250   14.8750 C   0  0  0  0  0  0  0  0  0  0  0  0
   21.3380   10.6500   13.9610 O   0  0  0  0  0  0  0  0  0  0  0  0
   21.4320   11.2520   16.1620 N   0  0  0  0  0  0  0  0  0  0  0  0
   21.8450   11.9410   16.7750 H   0  0  0  0  0  0  0  0  0  0  0  0
   20.1120   10.7570   16.4720 C   0  0  0  0  0  3  0  0  0  0  0  0
   20.1340    9.6780   17.5480 C   0  0  0  0  0  2  0  0  0  0  0  0
   19.1990   11.8280   17.0710 C   0  0  0  0  0  2  0  0  0  0  0  0
   18.6850    9.6260   18.0060 C   0  0  0  0  0  2  0  0  0  0  0  0
   18.2020   11.0740   17.9500 C   0  0  0  0  0  2  0  0  0  0  0  0
   24.4720   11.0620   15.0130 N   0  0  0  0  0  0  0  0  0  0  0  0
   25.3520   11.5670   16.0530 C   0  0  0  0  0  2  0  0  0  0  0  0
   24.3810    9.6200   14.8360 C   0  0  0  0  0  2  0  0  0  0  0  0
   26.7200   10.8880   15.9630 C   0  0  0  0  0  2  0  0  0  0  0  0
   25.2100    8.8410   15.8580 C   0  0  0  0  0  2  0  0  0  0  0  0
   26.6410    9.3600   15.9510 C   0  0  0  0  0  2  0  0  0  0  0  0
  1  9  1  0
  1 18  1  0
  2  1  1  0
  3  4  1  0
  3  5  2  0
  4  6  2  0
  5  7  1  0
  6  2  1  0
  7  2  2  0
  8  3  1  0
  9 11  1  0
 10  9  2  0
 11 13  1  0
 11 12  1  0
 13 15  1  0
 13 14  1  0
 14 16  1  0
 15 17  1  0
 17 16  1  0
 18 19  1  0
 20 18  1  0
 20 22  1  0
 21 19  1  0
 22 23  1  0
 23 21  1  0
M  RAD  8   1   2   4   2   5   2   6   2   7   2   8   2  13   2  14   3
M  RAD  8  15   3  16   3  17   3  19   3  20   3  21   3  22   3  23   3
M  END
>  <vina_score>  (5) 
-6.3399999999999999

>  <pose_id>  (5) 
5

$$$$
