
     RDKit          3D

 24 26  0  0  1  0  0  0  0  0999 V2000
   18.0570   16.1670   14.8620 C   0  0  0  0  0  1  0  0  0  0  0  0
   18.3770   14.6590   14.9950 C   0  0  1  0  0  0  0  0  0  0  0  0
   19.6700   14.6710   15.6550 O   0  0  0  0  0  0  0  0  0  0  0  0
   19.5320   14.3690   16.5690 H   0  0  0  0  0  0  0  0  0  0  0  0
   17.4080   13.9190   15.9320 C   0  0  0  0  0  0  0  0  0  0  0  0
   16.2020   14.5350   16.3220 C   0  0  0  0  0  3  0  0  0  0  0  0
   17.6620   12.6250   16.4200 C   0  0  0  0  0  3  0  0  0  0  0  0
   15.2970   13.8970   17.1740 C   0  0  0  0  0  3  0  0  0  0  0  0
   16.7560   11.9820   17.2720 C   0  0  0  0  0  3  0  0  0  0  0  0
   15.5790   12.6210   17.6470 C   0  0  0  0  0  0  0  0  0  0  0  0
   14.4710   11.8300   18.6980 Cl  0  0  0  0  0  0  0  0  0  0  0  0
   18.5480   14.0200   13.5520 C   0  0  0  0  0  3  0  0  0  0  0  0
   17.7050   14.6580   12.4310 C   0  0  0  0  0  0  0  0  0  0  0  0
   16.3060   14.4870   12.4660 C   0  0  0  0  0  3  0  0  0  0  0  0
   18.2380   15.4180   11.3800 C   0  0  0  0  0  3  0  0  0  0  0  0
   15.4780   15.0510   11.4930 C   0  0  0  0  0  3  0  0  0  0  0  0
   17.4090   15.9850   10.4060 C   0  0  0  0  0  3  0  0  0  0  0  0
   16.0300   15.8020   10.4620 C   0  0  0  0  0  3  0  0  0  0  0  0
   19.9950   13.6860   13.1760 C   0  0  0  0  0  0  0  0  0  0  0  0
   20.4390   12.3840   12.9430 C   0  0  0  0  0  3  0  0  0  0  0  0
   20.8350   14.7480   13.0380 N   0  0  0  0  0  0  0  0  0  0  0  0
   21.7670   12.1660   12.5780 C   0  0  0  0  0  3  0  0  0  0  0  0
   22.1170   14.5090   12.6880 C   0  0  0  0  0  3  0  0  0  0  0  0
   22.6250   13.2470   12.4480 C   0  0  0  0  0  3  0  0  0  0  0  0
  2  1  1  6
  2  3  1  0
  2  5  1  0
  3  4  1  0
  5  6  1  0
  5  7  2  0
  6  8  2  0
  7  9  1  0
  8 10  1  0
  9 10  2  0
 10 11  1  0
 12  2  1  0
 13 14  2  0
 13 12  1  0
 15 13  1  0
 16 14  1  0
 17 18  1  0
 17 15  2  0
 18 16  2  0
 19 12  1  0
 20 19  2  0
 21 19  1  0
 22 20  1  0
 23 21  2  0
 24 22  2  0
 24 23  1  0
M  RAD  8   1   2   6   2   7   2   8   2   9   2  12   2  14   2  15   2
M  RAD  7  16   2  17   2  18   2  20   2  22   2  23   2  24   2
M  END
>  <vina_score>  (1) 
-6.8200000000000003

>  <pose_id>  (1) 
1

$$$$

     RDKit          3D

 24 26  0  0  1  0  0  0  0  0999 V2000
   16.2330   14.9470   15.7900 C   0  0  0  0  0  1  0  0  0  0  0  0
   17.1370   13.6980   15.6570 C   0  0  1  0  0  0  0  0  0  0  0  0
   18.4660   14.2800   15.5890 O   0  0  0  0  0  0  0  0  0  0  0  0
   18.7920   14.1520   14.6820 H   0  0  0  0  0  0  0  0  0  0  0  0
   17.1080   12.8000   16.9040 C   0  0  0  0  0  0  0  0  0  0  0  0
   18.3180   12.3620   17.4800 C   0  0  0  0  0  3  0  0  0  0  0  0
   15.9120   12.3960   17.5230 C   0  0  0  0  0  3  0  0  0  0  0  0
   18.3340   11.5420   18.6120 C   0  0  0  0  0  3  0  0  0  0  0  0
   15.9250   11.5770   18.6590 C   0  0  0  0  0  3  0  0  0  0  0  0
   17.1350   11.1520   19.1960 C   0  0  0  0  0  0  0  0  0  0  0  0
   17.1470   10.1420   20.5880 Cl  0  0  0  0  0  0  0  0  0  0  0  0
   16.8330   12.9640   14.2830 C   0  0  0  0  0  3  0  0  0  0  0  0
   16.5040   13.8810   13.0900 C   0  0  0  0  0  0  0  0  0  0  0  0
   15.1810   13.8970   12.6020 C   0  0  0  0  0  3  0  0  0  0  0  0
   17.4360   14.7200   12.4620 C   0  0  0  0  0  3  0  0  0  0  0  0
   14.8080   14.7170   11.5360 C   0  0  0  0  0  3  0  0  0  0  0  0
   17.0620   15.5420   11.3930 C   0  0  0  0  0  3  0  0  0  0  0  0
   15.7490   15.5420   10.9310 C   0  0  0  0  0  3  0  0  0  0  0  0
   17.7690   11.7910   13.9720 C   0  0  0  0  0  0  0  0  0  0  0  0
   17.3110   10.4960   13.7300 C   0  0  0  0  0  3  0  0  0  0  0  0
   19.0950   12.0910   13.9030 N   0  0  0  0  0  0  0  0  0  0  0  0
   18.2280    9.4890   13.4260 C   0  0  0  0  0  3  0  0  0  0  0  0
   19.9610   11.0970   13.6120 C   0  0  0  0  0  3  0  0  0  0  0  0
   19.5790    9.7920   13.3660 C   0  0  0  0  0  3  0  0  0  0  0  0
  2  1  1  1
  2  5  1  0
  3  2  1  0
  4  3  1  0
  5  6  1  0
  5  7  2  0
  6  8  2  0
  7  9  1  0
  8 10  1  0
  9 10  2  0
 10 11  1  0
 12  2  1  0
 13 12  1  0
 14 13  2  0
 15 13  1  0
 16 14  1  0
 17 15  2  0
 18 17  1  0
 18 16  2  0
 19 12  1  0
 20 19  2  0
 21 19  1  0
 22 20  1  0
 23 21  2  0
 24 22  2  0
 24 23  1  0
M  RAD  8   1   2   6   2   7   2   8   2   9   2  12   2  14   2  15   2
M  RAD  7  16   2  17   2  18   2  20   2  22   2  23   2  24   2
M  END
>  <vina_score>  (2) 
-6.657

>  <pose_id>  (2) 
2

$$$$

     RDKit          3D

 24 26  0  0  1  0  0  0  0  0999 V2000
   18.7620    7.2150   18.9750 C   0  0  0  0  0  1  0  0  0  0  0  0
   19.2600    8.5780   19.5140 C   0  0  1  0  0  0  0  0  0  0  0  0
   19.5990    8.2650   20.8910 O   0  0  0  0  0  0  0  0  0  0  0  0
   19.2470    7.3790   21.0820 H   0  0  0  0  0  0  0  0  0  0  0  0
   20.5540    9.0550   18.8360 C   0  0  0  0  0  0  0  0  0  0  0  0
   20.9160    8.5410   17.5750 C   0  0  0  0  0  3  0  0  0  0  0  0
   21.4070   10.0120   19.4150 C   0  0  0  0  0  3  0  0  0  0  0  0
   22.0860    8.9480   16.9280 C   0  0  0  0  0  3  0  0  0  0  0  0
   22.5790   10.4240   18.7680 C   0  0  0  0  0  3  0  0  0  0  0  0
   22.9140    9.8880   17.5290 C   0  0  0  0  0  0  0  0  0  0  0  0
   24.3560   10.3920   16.7390 Cl  0  0  0  0  0  0  0  0  0  0  0  0
   18.0640    9.6220   19.5090 C   0  0  0  0  0  3  0  0  0  0  0  0
   17.7870   10.3300   20.8490 C   0  0  0  0  0  0  0  0  0  0  0  0
   16.4920   10.2390   21.3990 C   0  0  0  0  0  3  0  0  0  0  0  0
   18.7480   11.0520   21.5720 C   0  0  0  0  0  3  0  0  0  0  0  0
   16.1740   10.8410   22.6180 C   0  0  0  0  0  3  0  0  0  0  0  0
   18.4300   11.6550   22.7930 C   0  0  0  0  0  3  0  0  0  0  0  0
   17.1440   11.5500   23.3170 C   0  0  0  0  0  3  0  0  0  0  0  0
   18.0130   10.5190   18.2680 C   0  0  0  0  0  0  0  0  0  0  0  0
   18.3700   11.8670   18.2890 C   0  0  0  0  0  3  0  0  0  0  0  0
   17.6340    9.9120   17.1100 N   0  0  0  0  0  0  0  0  0  0  0  0
   18.3220   12.6090   17.1090 C   0  0  0  0  0  3  0  0  0  0  0  0
   17.5920   10.6540   15.9830 C   0  0  0  0  0  3  0  0  0  0  0  0
   17.9260   11.9930   15.9320 C   0  0  0  0  0  3  0  0  0  0  0  0
  2  1  1  6
  2  3  1  0
  3  4  1  0
  5  7  2  0
  5  2  1  0
  6  5  1  0
  8 10  1  0
  8  6  2  0
  9  7  1  0
 10  9  2  0
 11 10  1  0
 12  2  1  0
 12 13  1  0
 13 14  2  0
 13 15  1  0
 14 16  1  0
 15 17  2  0
 16 18  2  0
 17 18  1  0
 19 20  2  0
 19 12  1  0
 21 19  1  0
 22 20  1  0
 23 21  2  0
 24 23  1  0
 24 22  2  0
M  RAD  8   1   2   6   2   7   2   8   2   9   2  12   2  14   2  15   2
M  RAD  7  16   2  17   2  18   2  20   2  22   2  23   2  24   2
M  END
>  <vina_score>  (3) 
-6.5049999999999999

>  <pose_id>  (3) 
3

$$$$

     RDKit          3D

 24 26  0  0  1  0  0  0  0  0999 V2000
   18.2330    8.5680   19.0200 C   0  0  0  0  0  1  0  0  0  0  0  0
   19.3590    9.4450   19.6180 C   0  0  1  0  0  0  0  0  0  0  0  0
   19.5770    8.8310   20.9160 O   0  0  0  0  0  0  0  0  0  0  0  0
   19.1760    7.9460   20.8890 H   0  0  0  0  0  0  0  0  0  0  0  0
   20.6830    9.3320   18.8460 C   0  0  0  0  0  0  0  0  0  0  0  0
   21.7550   10.1920   19.1610 C   0  0  0  0  0  3  0  0  0  0  0  0
   20.8910    8.3840   17.8280 C   0  0  0  0  0  3  0  0  0  0  0  0
   22.9730   10.1220   18.4800 C   0  0  0  0  0  3  0  0  0  0  0  0
   22.1120    8.3100   17.1450 C   0  0  0  0  0  3  0  0  0  0  0  0
   23.1460    9.1810   17.4730 C   0  0  0  0  0  0  0  0  0  0  0  0
   24.6420    9.0910   16.6300 Cl  0  0  0  0  0  0  0  0  0  0  0  0
   18.8240   10.9230   19.8380 C   0  0  0  0  0  3  0  0  0  0  0  0
   18.1440   11.5790   18.6210 C   0  0  0  0  0  0  0  0  0  0  0  0
   18.9600   12.0560   17.5750 C   0  0  0  0  0  3  0  0  0  0  0  0
   16.7560   11.7190   18.4750 C   0  0  0  0  0  3  0  0  0  0  0  0
   18.4120   12.6450   16.4340 C   0  0  0  0  0  3  0  0  0  0  0  0
   16.2070   12.3100   17.3320 C   0  0  0  0  0  3  0  0  0  0  0  0
   17.0340   12.7720   16.3110 C   0  0  0  0  0  3  0  0  0  0  0  0
   18.1240   11.1480   21.1820 C   0  0  0  0  0  0  0  0  0  0  0  0
   16.8010   10.7750   21.4230 C   0  0  0  0  0  3  0  0  0  0  0  0
   18.8850   11.7040   22.1640 N   0  0  0  0  0  0  0  0  0  0  0  0
   16.2460   10.9900   22.6840 C   0  0  0  0  0  3  0  0  0  0  0  0
   18.3220   11.9050   23.3750 C   0  0  0  0  0  3  0  0  0  0  0  0
   17.0180   11.5660   23.6810 C   0  0  0  0  0  3  0  0  0  0  0  0
  2  1  1  6
  2  3  1  0
  4  3  1  0
  5  6  1  0
  5  2  1  0
  7  5  2  0
  8  6  2  0
  9 10  2  0
  9  7  1  0
 10  8  1  0
 11 10  1  0
 12  2  1  0
 12 19  1  0
 13 12  1  0
 14 13  2  0
 15 13  1  0
 16 14  1  0
 17 15  2  0
 18 16  2  0
 18 17  1  0
 19 20  2  0
 19 21  1  0
 20 22  1  0
 21 23  2  0
 22 24  2  0
 23 24  1  0
M  RAD  8   1   2   6   2   7   2   8   2   9   2  12   2  14   2  15   2
M  RAD  7  16   2  17   2  18   2  20   2  22   2  23   2  24   2
M  END
>  <vina_score>  (4) 
-6.4850000000000003

>  <pose_id>  (4) 
4

$$$$

     RDKit          3D

 24 26  0  0  1  0  0  0  0  0999 V2000
   18.8630   10.7040   14.7920 C   0  0  0  0  0  1  0  0  0  0  0  0
   19.5480   11.9880   15.3190 C   0  0  1  0  0  0  0  0  0  0  0  0
   20.5640   11.4560   16.2100 O   0  0  0  0  0  0  0  0  0  0  0  0
   20.5770   10.4910   16.0910 H   0  0  0  0  0  0  0  0  0  0  0  0
   20.2870   12.7690   14.2210 C   0  0  0  0  0  0  0  0  0  0  0  0
   21.6910   12.6840   14.1240 C   0  0  0  0  0  3  0  0  0  0  0  0
   19.6200   13.5700   13.2770 C   0  0  0  0  0  3  0  0  0  0  0  0
   22.4000   13.3820   13.1410 C   0  0  0  0  0  3  0  0  0  0  0  0
   20.3270   14.2680   12.2900 C   0  0  0  0  0  3  0  0  0  0  0  0
   21.7130   14.1720   12.2280 C   0  0  0  0  0  0  0  0  0  0  0  0
   22.5790   15.0340   11.0180 Cl  0  0  0  0  0  0  0  0  0  0  0  0
   18.5120   12.8330   16.1740 C   0  0  0  0  0  3  0  0  0  0  0  0
   17.2860   13.3660   15.4080 C   0  0  0  0  0  0  0  0  0  0  0  0
   16.9470   14.7270   15.5530 C   0  0  0  0  0  3  0  0  0  0  0  0
   16.4890   12.5870   14.5570 C   0  0  0  0  0  3  0  0  0  0  0  0
   15.8600   15.2830   14.8750 C   0  0  0  0  0  3  0  0  0  0  0  0
   15.4010   13.1440   13.8770 C   0  0  0  0  0  3  0  0  0  0  0  0
   15.0860   14.4900   14.0350 C   0  0  0  0  0  3  0  0  0  0  0  0
   18.2190   12.2550   17.5630 C   0  0  0  0  0  0  0  0  0  0  0  0
   17.0300   11.5970   17.8770 C   0  0  0  0  0  3  0  0  0  0  0  0
   19.2140   12.3820   18.4820 N   0  0  0  0  0  0  0  0  0  0  0  0
   16.8520   11.0740   19.1580 C   0  0  0  0  0  3  0  0  0  0  0  0
   19.0150   11.8710   19.7160 C   0  0  0  0  0  3  0  0  0  0  0  0
   17.8610   11.2130   20.0980 C   0  0  0  0  0  3  0  0  0  0  0  0
  2  1  1  6
  2  3  1  0
  4  3  1  0
  5  2  1  0
  6  5  1  0
  7  5  2  0
  8  6  2  0
  9  7  1  0
 10  9  2  0
 10  8  1  0
 11 10  1  0
 12  2  1  0
 12 19  1  0
 13 14  2  0
 13 12  1  0
 15 13  1  0
 16 14  1  0
 17 18  1  0
 17 15  2  0
 18 16  2  0
 19 20  2  0
 19 21  1  0
 20 22  1  0
 21 23  2  0
 22 24  2  0
 23 24  1  0
M  RAD  8   1   2   6   2   7   2   8   2   9   2  12   2  14   2  15   2
M  RAD  7  16   2  17   2  18   2  20   2  22   2  23   2  24   2
M  END
>  <vina_score>  (5) 
-5.7649999999999997

>  <pose_id>  (5) 
5

$$$$
