
     RDKit          3D

 32 32  0  0  1  0  0  0  0  0999 V2000
   24.2900   11.2000   16.2130 C   0  0  0  0  0  3  0  0  0  0  0  0
   25.8180   11.3190   16.0230 C   0  0  0  0  0  3  0  0  0  0  0  0
   26.5140   10.0450   15.5120 C   0  0  0  0  0  2  0  0  0  0  0  0
   26.0350    9.6690   14.2210 O   0  0  0  0  0  0  0  0  0  0  0  0
   26.2540   10.3890   13.5870 H   0  0  0  0  0  0  0  0  0  0  0  0
   26.4560   11.8240   17.1970 O   0  0  0  0  0  0  0  0  0  0  0  0
   25.7640   12.3030   17.6980 H   0  0  0  0  0  0  0  0  0  0  0  0
   23.6960   11.3880   14.9070 O   0  0  0  0  0  0  0  0  0  0  0  0
   23.5870   12.7620   14.5160 C   0  0  0  0  0  3  0  0  0  0  0  0
   24.4460   13.0380   13.4210 O   0  0  0  0  0  0  0  0  0  0  0  0
   22.1110   13.1080   14.1970 C   0  0  0  0  0  3  0  0  0  0  0  0
   24.1720   12.2310   12.2610 C   0  0  0  0  0  3  0  0  0  0  0  0
   21.7940   13.0390   12.6910 C   0  0  0  0  0  3  0  0  0  0  0  0
   22.6610   11.9800   12.0050 C   0  0  0  0  0  3  0  0  0  0  0  0
   21.2430   12.2310   14.9420 O   0  0  0  0  0  0  0  0  0  0  0  0
   20.4860   12.0710   14.3340 H   0  0  0  0  0  0  0  0  0  0  0  0
   24.8340   12.9250   11.0640 C   0  0  0  0  0  2  0  0  0  0  0  0
   23.8970   13.1070   10.0070 O   0  0  0  0  0  0  0  0  0  0  0  0
   24.3410   13.6540    9.3340 H   0  0  0  0  0  0  0  0  0  0  0  0
   21.9900   14.3090   12.0630 O   0  0  0  0  0  0  0  0  0  0  0  0
   21.1180   14.6090   11.7470 H   0  0  0  0  0  0  0  0  0  0  0  0
   22.2690   10.6940   12.5250 O   0  0  0  0  0  0  0  0  0  0  0  0
   21.3960   10.8220   12.9420 H   0  0  0  0  0  0  0  0  0  0  0  0
   23.7370    9.8570   16.7570 C   0  0  0  0  0  3  0  0  0  0  0  0
   23.3140    9.0500   15.6360 O   0  0  0  0  0  0  0  0  0  0  0  0
   23.1790    9.6660   14.8840 H   0  0  0  0  0  0  0  0  0  0  0  0
   22.5630    9.9220   17.7450 C   0  0  0  0  0  3  0  0  0  0  0  0
   21.6070   10.9150   17.3500 O   0  0  0  0  0  0  0  0  0  0  0  0
   20.9820   10.4170   16.7780 H   0  0  0  0  0  0  0  0  0  0  0  0
   21.8470    8.5880   17.9760 C   0  0  0  0  0  2  0  0  0  0  0  0
   22.8370    7.6200   18.3520 O   0  0  0  0  0  0  0  0  0  0  0  0
   23.7030    8.0210   18.1610 H   0  0  0  0  0  0  0  0  0  0  0  0
  1  8  1  0
  1 24  1  1
  2  3  1  0
  1  2  1  0
  2  6  1  0
  4  3  1  0
  5  4  1  0
  6  7  1  0
  9  8  1  0
  9 10  1  0
 11  9  1  0
 11 15  1  0
 12 17  1  0
 12 10  1  0
 13 20  1  0
 11 13  1  6
 14 12  1  0
 14 22  1  0
 14 13  1  1
 16 15  1  0
 18 17  1  0
 19 18  1  0
 21 20  1  0
 22 23  1  0
 24 25  1  0
 24 27  1  1
 26 25  1  0
 27 30  1  0
 28 27  1  0
 29 28  1  0
 30 31  1  0
 32 31  1  0
M  END
>  <vina_score>  (1) 
-5.3239999999999998

>  <pose_id>  (1) 
1

$$$$

     RDKit          3D

 32 32  0  0  1  0  0  0  0  0999 V2000
   22.4100   10.5330   13.7140 C   0  0  0  0  0  3  0  0  0  0  0  0
   21.0540    9.7970   13.7710 C   0  0  0  0  0  3  0  0  0  0  0  0
   21.1450    8.2620   13.8060 C   0  0  0  0  0  2  0  0  0  0  0  0
   21.9960    7.7640   12.7750 O   0  0  0  0  0  0  0  0  0  0  0  0
   22.0890    8.4610   12.0850 H   0  0  0  0  0  0  0  0  0  0  0  0
   20.1700   10.2420   12.7400 O   0  0  0  0  0  0  0  0  0  0  0  0
   19.4940   10.7960   13.1830 H   0  0  0  0  0  0  0  0  0  0  0  0
   23.4100    9.5920   14.1680 O   0  0  0  0  0  0  0  0  0  0  0  0
   24.0900   10.0050   15.3600 C   0  0  0  0  0  3  0  0  0  0  0  0
   23.5410    9.3550   16.4970 O   0  0  0  0  0  0  0  0  0  0  0  0
   25.6110    9.7440   15.2220 C   0  0  0  0  0  3  0  0  0  0  0  0
   23.6150    7.9190   16.4270 C   0  0  0  0  0  3  0  0  0  0  0  0
   26.0510    8.4190   15.8720 C   0  0  0  0  0  3  0  0  0  0  0  0
   24.9280    7.3810   15.7970 C   0  0  0  0  0  3  0  0  0  0  0  0
   25.9750    9.7740   13.8280 O   0  0  0  0  0  0  0  0  0  0  0  0
   26.8530   10.2200   13.8200 H   0  0  0  0  0  0  0  0  0  0  0  0
   23.4200    7.3900   17.8530 C   0  0  0  0  0  2  0  0  0  0  0  0
   24.0730    8.2360   18.7960 O   0  0  0  0  0  0  0  0  0  0  0  0
   24.4490    7.6510   19.4780 H   0  0  0  0  0  0  0  0  0  0  0  0
   26.4390    8.6160   17.2350 O   0  0  0  0  0  0  0  0  0  0  0  0
   25.7330    9.1340   17.6620 H   0  0  0  0  0  0  0  0  0  0  0  0
   24.7250    7.0610   14.4070 O   0  0  0  0  0  0  0  0  0  0  0  0
   24.6140    6.0930   14.3630 H   0  0  0  0  0  0  0  0  0  0  0  0
   22.8890   11.0480   12.3320 C   0  0  0  0  0  3  0  0  0  0  0  0
   23.7780   10.0630   11.7610 O   0  0  0  0  0  0  0  0  0  0  0  0
   23.3020    9.2050   11.7940 H   0  0  0  0  0  0  0  0  0  0  0  0
   23.6160   12.4010   12.2910 C   0  0  0  0  0  3  0  0  0  0  0  0
   24.7990   12.3780   13.1010 O   0  0  0  0  0  0  0  0  0  0  0  0
   24.5430   11.8160   13.8650 H   0  0  0  0  0  0  0  0  0  0  0  0
   23.9680   12.8950   10.8850 C   0  0  0  0  0  2  0  0  0  0  0  0
   25.1320   12.1800   10.4480 O   0  0  0  0  0  0  0  0  0  0  0  0
   25.0740   11.2910   10.8420 H   0  0  0  0  0  0  0  0  0  0  0  0
  1  2  1  0
  1  8  1  1
  2  3  1  0
  4  3  1  0
  5  4  1  0
  6  7  1  0
  2  6  1  0
  9  8  1  0
  9 10  1  0
 11 15  1  0
 11  9  1  0
 13 11  1  1
 12 10  1  0
 12 17  1  0
 13 20  1  0
 14 22  1  0
 14 13  1  1
 14 12  1  0
 16 15  1  0
 17 18  1  0
 18 19  1  0
 20 21  1  0
 23 22  1  0
 24 25  1  0
 24  1  1  0
 25 26  1  0
 27 30  1  0
 27 24  1  0
 27 28  1  1
 28 29  1  0
 31 32  1  0
 31 30  1  0
M  END
>  <vina_score>  (2) 
-5.2999999999999998

>  <pose_id>  (2) 
2

$$$$

     RDKit          3D

 32 32  0  0  1  0  0  0  0  0999 V2000
   23.3360   11.7200   13.8420 C   0  0  0  0  0  3  0  0  0  0  0  0
   21.8450   11.5210   13.4940 C   0  0  0  0  0  3  0  0  0  0  0  0
   20.8540   11.9670   14.5830 C   0  0  0  0  0  2  0  0  0  0  0  0
   21.2580   11.5150   15.8750 O   0  0  0  0  0  0  0  0  0  0  0  0
   20.8250   10.6490   16.0510 H   0  0  0  0  0  0  0  0  0  0  0  0
   21.5790   10.1840   13.0660 O   0  0  0  0  0  0  0  0  0  0  0  0
   22.4400    9.7150   13.0890 H   0  0  0  0  0  0  0  0  0  0  0  0
   23.8260   10.4400   14.3040 O   0  0  0  0  0  0  0  0  0  0  0  0
   24.5590   10.5130   15.5340 C   0  0  0  0  0  3  0  0  0  0  0  0
   23.7710   10.0310   16.6120 O   0  0  0  0  0  0  0  0  0  0  0  0
   25.8950    9.7410   15.4020 C   0  0  0  0  0  3  0  0  0  0  0  0
   23.3390    8.6690   16.4410 C   0  0  0  0  0  3  0  0  0  0  0  0
   25.8160    8.3090   15.9640 C   0  0  0  0  0  3  0  0  0  0  0  0
   24.4050    7.7410   15.7970 C   0  0  0  0  0  3  0  0  0  0  0  0
   26.3040    9.7250   14.0200 O   0  0  0  0  0  0  0  0  0  0  0  0
   27.0970   10.3080   13.9990 H   0  0  0  0  0  0  0  0  0  0  0  0
   22.9130    8.1570   17.8230 C   0  0  0  0  0  2  0  0  0  0  0  0
   23.7550    8.6940   18.8380 O   0  0  0  0  0  0  0  0  0  0  0  0
   23.1890    8.8420   19.6180 H   0  0  0  0  0  0  0  0  0  0  0  0
   26.1930    8.2740   17.3440 O   0  0  0  0  0  0  0  0  0  0  0  0
   25.7270    9.0060   17.7870 H   0  0  0  0  0  0  0  0  0  0  0  0
   24.1590    7.5980   14.3840 O   0  0  0  0  0  0  0  0  0  0  0  0
   23.1960    7.7010   14.2620 H   0  0  0  0  0  0  0  0  0  0  0  0
   24.2860   12.1660   12.7010 C   0  0  0  0  0  3  0  0  0  0  0  0
   24.3180   13.6100   12.6710 O   0  0  0  0  0  0  0  0  0  0  0  0
   24.8950   13.8600   11.9170 H   0  0  0  0  0  0  0  0  0  0  0  0
   23.9600   11.6850   11.2780 C   0  0  0  0  0  3  0  0  0  0  0  0
   24.2670   12.6940   10.3060 O   0  0  0  0  0  0  0  0  0  0  0  0
   23.3850   13.0520   10.0610 H   0  0  0  0  0  0  0  0  0  0  0  0
   24.6350   10.3690   10.8790 C   0  0  0  0  0  2  0  0  0  0  0  0
   24.0930    9.3310   11.7060 O   0  0  0  0  0  0  0  0  0  0  0  0
   23.6300    9.7740   12.4390 H   0  0  0  0  0  0  0  0  0  0  0  0
  1  8  1  1
  1  2  1  0
  2  3  1  1
  3  4  1  0
  4  5  1  0
  6  7  1  0
  2  6  1  0
  9  8  1  0
  9 10  1  0
 11 15  1  0
 11  9  1  0
 13 11  1  1
 12 10  1  0
 12 17  1  0
 13 20  1  0
 14 22  1  0
 14 13  1  1
 14 12  1  0
 16 15  1  0
 17 18  1  0
 18 19  1  0
 20 21  1  0
 23 22  1  0
 24 25  1  0
 24  1  1  1
 26 25  1  0
 27 30  1  0
 24 27  1  0
 27 28  1  0
 29 28  1  0
 30 31  1  0
 31 32  1  0
M  END
>  <vina_score>  (3) 
-5.2450000000000001

>  <pose_id>  (3) 
3

$$$$

     RDKit          3D

 32 32  0  0  1  0  0  0  0  0999 V2000
   24.6180    9.6910   16.2160 C   0  0  0  0  0  3  0  0  0  0  0  0
   26.0740    9.8150   15.7160 C   0  0  0  0  0  3  0  0  0  0  0  0
   26.7230   11.1940   15.9290 C   0  0  0  0  0  2  0  0  0  0  0  0
   26.2450   11.8190   17.1200 O   0  0  0  0  0  0  0  0  0  0  0  0
   25.9360   12.7250   16.8920 H   0  0  0  0  0  0  0  0  0  0  0  0
   26.2040    9.3830   14.3610 O   0  0  0  0  0  0  0  0  0  0  0  0
   25.3410    9.5680   13.9330 H   0  0  0  0  0  0  0  0  0  0  0  0
   23.7680   10.0590   15.1040 O   0  0  0  0  0  0  0  0  0  0  0  0
   23.0700   11.2960   15.2990 C   0  0  0  0  0  3  0  0  0  0  0  0
   23.7560   12.3610   14.6590 O   0  0  0  0  0  0  0  0  0  0  0  0
   21.6090   11.1640   14.8010 C   0  0  0  0  0  3  0  0  0  0  0  0
   23.9160   12.1680   13.2410 C   0  0  0  0  0  3  0  0  0  0  0  0
   21.4140   11.7060   13.3730 C   0  0  0  0  0  3  0  0  0  0  0  0
   22.6890   11.5200   12.5460 C   0  0  0  0  0  3  0  0  0  0  0  0
   21.1980    9.7850   14.8850 O   0  0  0  0  0  0  0  0  0  0  0  0
   20.2640    9.7950   14.5740 H   0  0  0  0  0  0  0  0  0  0  0  0
   24.2420   13.5390   12.6360 C   0  0  0  0  0  2  0  0  0  0  0  0
   23.3390   13.8490   11.5790 O   0  0  0  0  0  0  0  0  0  0  0  0
   23.7180   14.6120   11.1060 H   0  0  0  0  0  0  0  0  0  0  0  0
   21.0440   13.0880   13.3900 O   0  0  0  0  0  0  0  0  0  0  0  0
   21.4300   13.4770   14.1950 H   0  0  0  0  0  0  0  0  0  0  0  0
   22.8950   10.1030   12.3790 O   0  0  0  0  0  0  0  0  0  0  0  0
   23.4220    9.8110   13.1470 H   0  0  0  0  0  0  0  0  0  0  0  0
   24.1390    8.2940   16.6880 C   0  0  0  0  0  3  0  0  0  0  0  0
   23.1380    7.8160   15.7630 O   0  0  0  0  0  0  0  0  0  0  0  0
   22.2890    7.7990   16.2560 H   0  0  0  0  0  0  0  0  0  0  0  0
   23.5460    8.1880   18.1020 C   0  0  0  0  0  3  0  0  0  0  0  0
   24.5700    7.9550   19.0780 O   0  0  0  0  0  0  0  0  0  0  0  0
   24.0730    7.9010   19.9240 H   0  0  0  0  0  0  0  0  0  0  0  0
   22.6960    9.3890   18.5300 C   0  0  0  0  0  2  0  0  0  0  0  0
   21.4520    9.3200   17.8200 O   0  0  0  0  0  0  0  0  0  0  0  0
   21.5200    9.9500   17.0810 H   0  0  0  0  0  0  0  0  0  0  0  0
  1  8  1  0
  1 24  1  1
  2  3  1  0
  1  2  1  0
  3  4  1  0
  5  4  1  0
  2  6  1  0
  7  6  1  0
  9  8  1  0
  9 10  1  0
 11 15  1  0
 11  9  1  0
 12 17  1  0
 12 10  1  0
 13 20  1  0
 11 13  1  6
 14 22  1  0
 14 12  1  0
 14 13  1  1
 16 15  1  0
 18 17  1  0
 19 18  1  0
 20 21  1  0
 22 23  1  0
 24 25  1  0
 24 27  1  1
 25 26  1  0
 27 30  1  0
 27 28  1  0
 28 29  1  0
 31 30  1  0
 32 31  1  0
M  END
>  <vina_score>  (4) 
-5.1349999999999998

>  <pose_id>  (4) 
4

$$$$
