
     RDKit          3D

 23 25  0  0  1  0  0  0  0  0999 V2000
   20.2150   10.5330   20.4480 C   0  0  0  0  0  0  0  0  0  0  0  0
   21.4040   11.2300   20.5480 C   0  0  0  0  0  3  0  0  0  0  0  0
   22.3220   10.8020   19.6240 N   0  0  0  0  0  0  0  0  0  0  0  0
   21.7100    9.8550   18.9400 C   0  0  0  0  0  0  0  0  0  0  0  0
   20.4400    9.6540   19.4130 N   0  0  0  0  0  0  0  0  0  0  0  0
   19.7740    8.9860   19.0500 H   0  0  0  0  0  0  0  0  0  0  0  0
   18.9580   10.6320   21.1850 C   0  0  0  0  0  0  0  0  0  0  0  0
   17.6620   11.4660   23.0830 C   0  0  0  0  0  0  0  0  0  0  0  0
   16.5290   10.8140   22.5870 C   0  0  0  0  0  3  0  0  0  0  0  0
   18.8690   11.3810   22.3690 C   0  0  0  0  0  3  0  0  0  0  0  0
   16.6050   10.0720   21.4080 C   0  0  0  0  0  3  0  0  0  0  0  0
   17.8110    9.9820   20.7130 C   0  0  0  0  0  3  0  0  0  0  0  0
   17.5720   12.3020   24.3250 C   0  0  0  0  0  1  0  0  0  0  0  0
   22.2890    9.0650   17.8090 C   0  0  0  0  0  3  0  0  0  0  0  0
   22.3390    7.7100   18.2650 O   0  0  0  0  0  0  0  0  0  0  0  0
   21.4080    7.4110   18.2930 H   0  0  0  0  0  0  0  0  0  0  0  0
   23.7000    9.5640   17.4550 C   0  0  0  0  0  2  0  0  0  0  0  0
   23.6860   10.6430   16.3930 C   0  0  0  0  0  0  0  0  0  0  0  0
   22.5590   10.8320   15.5810 C   0  0  0  0  0  3  0  0  0  0  0  0
   24.8010   11.4720   16.2050 C   0  0  0  0  0  3  0  0  0  0  0  0
   22.5450   11.8300   14.6060 C   0  0  0  0  0  3  0  0  0  0  0  0
   24.7860   12.4690   15.2290 C   0  0  0  0  0  3  0  0  0  0  0  0
   23.6590   12.6480   14.4300 C   0  0  0  0  0  3  0  0  0  0  0  0
  1  2  2  0
  1  7  1  0
  3  2  1  0
  4  5  1  1
  4  3  2  0
  5  1  1  0
  6  5  1  0
  7 10  1  0
  8 13  1  0
  9  8  1  0
 10  8  2  0
 11  9  2  0
 12  7  2  0
 12 11  1  0
 14 17  1  0
 14 15  1  0
 14  4  1  0
 15 16  1  0
 18 17  1  0
 19 18  2  0
 20 18  1  0
 21 19  1  0
 22 20  2  0
 23 21  2  0
 23 22  1  0
M  END
>  <vina_score>  (1) 
-7.1630000000000003

>  <pose_id>  (1) 
1

$$$$

     RDKit          3D

 23 25  0  0  1  0  0  0  0  0999 V2000
   16.6530   13.4350   14.1330 C   0  0  0  0  0  0  0  0  0  0  0  0
   15.8050   12.4160   14.5260 C   0  0  0  0  0  3  0  0  0  0  0  0
   16.1090   11.9590   15.7820 N   0  0  0  0  0  0  0  0  0  0  0  0
   17.1290   12.6940   16.1810 C   0  0  0  0  0  0  0  0  0  0  0  0
   17.4950   13.5890   15.2110 N   0  0  0  0  0  0  0  0  0  0  0  0
   18.2450   14.2620   15.2810 H   0  0  0  0  0  0  0  0  0  0  0  0
   16.7190   14.2370   12.9150 C   0  0  0  0  0  0  0  0  0  0  0  0
   18.0160   15.3840   11.1880 C   0  0  0  0  0  0  0  0  0  0  0  0
   16.8260   15.7780   10.5680 C   0  0  0  0  0  3  0  0  0  0  0  0
   17.9530   14.6030   12.3540 C   0  0  0  0  0  3  0  0  0  0  0  0
   15.5950   15.4160   11.1130 C   0  0  0  0  0  3  0  0  0  0  0  0
   15.5430   14.6510   12.2780 C   0  0  0  0  0  3  0  0  0  0  0  0
   19.3410   15.7330   10.5780 C   0  0  0  0  0  1  0  0  0  0  0  0
   17.8370   12.5870   17.4950 C   0  0  0  0  0  3  0  0  0  0  0  0
   19.2070   12.9020   17.2270 O   0  0  0  0  0  0  0  0  0  0  0  0
   19.3090   12.8100   16.2580 H   0  0  0  0  0  0  0  0  0  0  0  0
   17.7170   11.1670   18.0710 C   0  0  0  0  0  2  0  0  0  0  0  0
   17.5390   11.1620   19.5740 C   0  0  0  0  0  0  0  0  0  0  0  0
   18.5590   11.6260   20.4150 C   0  0  0  0  0  3  0  0  0  0  0  0
   16.3480   10.6930   20.1490 C   0  0  0  0  0  3  0  0  0  0  0  0
   18.3920   11.6260   21.8010 C   0  0  0  0  0  3  0  0  0  0  0  0
   16.1840   10.6930   21.5350 C   0  0  0  0  0  3  0  0  0  0  0  0
   17.2040   11.1590   22.3600 C   0  0  0  0  0  3  0  0  0  0  0  0
  1  2  2  0
  1  5  1  0
  2  3  1  0
  3  4  2  0
  4 14  1  0
  5  6  1  0
  4  5  1  6
  7  1  1  0
  8 10  2  0
  9 11  2  0
  9  8  1  0
 10  7  1  0
 11 12  1  0
 12  7  2  0
 13  8  1  0
 14 17  1  0
 14 15  1  0
 16 15  1  0
 17 18  1  0
 18 20  2  0
 18 19  1  0
 19 21  2  0
 20 22  1  0
 21 23  1  0
 22 23  2  0
M  END
>  <vina_score>  (2) 
-7.077

>  <pose_id>  (2) 
2

$$$$

     RDKit          3D

 23 25  0  0  1  0  0  0  0  0999 V2000
   23.5840   12.3450   14.2190 C   0  0  0  0  0  0  0  0  0  0  0  0
   24.1110   12.9520   13.0940 C   0  0  0  0  0  3  0  0  0  0  0  0
   23.3420   14.0090   12.6810 N   0  0  0  0  0  0  0  0  0  0  0  0
   22.3500   14.0760   13.5470 C   0  0  0  0  0  0  0  0  0  0  0  0
   22.4530   13.0820   14.4850 N   0  0  0  0  0  0  0  0  0  0  0  0
   21.8150   12.9270   15.2530 H   0  0  0  0  0  0  0  0  0  0  0  0
   24.0390   11.2150   15.0240 C   0  0  0  0  0  0  0  0  0  0  0  0
   23.8250    9.7780   16.9910 C   0  0  0  0  0  0  0  0  0  0  0  0
   24.9270    9.0340   16.5580 C   0  0  0  0  0  3  0  0  0  0  0  0
   23.3800   10.8580   16.2110 C   0  0  0  0  0  3  0  0  0  0  0  0
   25.5860    9.3760   15.3770 C   0  0  0  0  0  3  0  0  0  0  0  0
   25.1450   10.4580   14.6170 C   0  0  0  0  0  3  0  0  0  0  0  0
   23.0870    9.3840   18.2350 C   0  0  0  0  0  1  0  0  0  0  0  0
   21.2300   15.0670   13.5360 C   0  0  0  0  0  3  0  0  0  0  0  0
   21.0890   15.5130   14.8890 O   0  0  0  0  0  0  0  0  0  0  0  0
   20.6290   16.3740   14.8320 H   0  0  0  0  0  0  0  0  0  0  0  0
   19.9240   14.4180   13.0480 C   0  0  0  0  0  2  0  0  0  0  0  0
   19.4250   15.0200   11.7520 C   0  0  0  0  0  0  0  0  0  0  0  0
   18.0530   15.1980   11.5290 C   0  0  0  0  0  3  0  0  0  0  0  0
   20.3290   15.4110   10.7530 C   0  0  0  0  0  3  0  0  0  0  0  0
   17.5930   15.7570   10.3360 C   0  0  0  0  0  3  0  0  0  0  0  0
   19.8680   15.9690    9.5600 C   0  0  0  0  0  3  0  0  0  0  0  0
   18.5010   16.1430    9.3510 C   0  0  0  0  0  3  0  0  0  0  0  0
  1  5  1  0
  1  7  1  0
  2  1  2  0
  3  2  1  0
  3  4  2  0
  4  5  1  1
  5  6  1  0
  7 10  1  0
  8 13  1  0
  9  8  1  0
 10  8  2  0
 11  9  2  0
 12  7  2  0
 12 11  1  0
 14 17  1  0
 14  4  1  0
 14 15  1  0
 16 15  1  0
 18 17  1  0
 19 18  1  0
 20 18  2  0
 21 19  2  0
 22 20  1  0
 23 22  2  0
 23 21  1  0
M  END
>  <vina_score>  (3) 
-7.0250000000000004

>  <pose_id>  (3) 
3

$$$$

     RDKit          3D

 23 25  0  0  1  0  0  0  0  0999 V2000
   24.0230   12.3280   12.8700 C   0  0  0  0  0  0  0  0  0  0  0  0
   24.4080   12.3760   11.5430 C   0  0  0  0  0  3  0  0  0  0  0  0
   23.6960   13.3140   10.8420 N   0  0  0  0  0  0  0  0  0  0  0  0
   22.8820   13.8620   11.7230 C   0  0  0  0  0  0  0  0  0  0  0  0
   23.0400   13.2870   12.9570 N   0  0  0  0  0  0  0  0  0  0  0  0
   22.5320   13.5380   13.7940 H   0  0  0  0  0  0  0  0  0  0  0  0
   24.4870   11.5210   13.9950 C   0  0  0  0  0  0  0  0  0  0  0  0
   24.7070    9.3600   15.1180 C   0  0  0  0  0  0  0  0  0  0  0  0
   25.3900    9.9840   16.1670 C   0  0  0  0  0  3  0  0  0  0  0  0
   24.2700   10.1340   14.0310 C   0  0  0  0  0  3  0  0  0  0  0  0
   25.6160   11.3600   16.1400 C   0  0  0  0  0  3  0  0  0  0  0  0
   25.1670   12.1220   15.0610 C   0  0  0  0  0  3  0  0  0  0  0  0
   24.5040    7.8740   15.1240 C   0  0  0  0  0  1  0  0  0  0  0  0
   21.8900   14.9490   11.4550 C   0  0  0  0  0  3  0  0  0  0  0  0
   22.4520   16.1380   12.0190 O   0  0  0  0  0  0  0  0  0  0  0  0
   23.3180   16.2500   11.5780 H   0  0  0  0  0  0  0  0  0  0  0  0
   20.5360   14.6320   12.1120 C   0  0  0  0  0  2  0  0  0  0  0  0
   19.3640   15.1540   11.3080 C   0  0  0  0  0  0  0  0  0  0  0  0
   19.5650   15.7490   10.0550 C   0  0  0  0  0  3  0  0  0  0  0  0
   18.0570   15.0490   11.8050 C   0  0  0  0  0  3  0  0  0  0  0  0
   18.4840   16.2250    9.3130 C   0  0  0  0  0  3  0  0  0  0  0  0
   16.9760   15.5260   11.0620 C   0  0  0  0  0  3  0  0  0  0  0  0
   17.1890   16.1130    9.8160 C   0  0  0  0  0  3  0  0  0  0  0  0
  1  5  1  0
  1  7  1  0
  2  1  2  0
  3  2  1  0
  3  4  2  0
  4  5  1  1
  5  6  1  0
  7 10  2  0
  7 12  1  0
  8 13  1  0
  8  9  2  0
 10  8  1  0
 11  9  1  0
 12 11  2  0
 14  4  1  0
 14 15  1  0
 14 17  1  0
 16 15  1  0
 18 20  1  0
 18 17  1  0
 19 18  2  0
 21 23  2  0
 21 19  1  0
 22 20  2  0
 23 22  1  0
M  END
>  <vina_score>  (4) 
-6.9649999999999999

>  <pose_id>  (4) 
4

$$$$

     RDKit          3D

 23 25  0  0  1  0  0  0  0  0999 V2000
   22.7860    9.7680   18.1120 C   0  0  0  0  0  0  0  0  0  0  0  0
   23.4820    8.6760   17.6290 C   0  0  0  0  0  3  0  0  0  0  0  0
   24.4940    9.0520   16.7830 N   0  0  0  0  0  0  0  0  0  0  0  0
   24.4440   10.3690   16.7480 C   0  0  0  0  0  0  0  0  0  0  0  0
   23.4210   10.8410   17.5270 N   0  0  0  0  0  0  0  0  0  0  0  0
   23.1830   11.8130   17.6640 H   0  0  0  0  0  0  0  0  0  0  0  0
   21.6600    9.8810   19.0340 C   0  0  0  0  0  0  0  0  0  0  0  0
   19.4290    9.1990   19.7640 C   0  0  0  0  0  0  0  0  0  0  0  0
   19.5040   10.1100   20.8220 C   0  0  0  0  0  3  0  0  0  0  0  0
   20.5160    9.0820   18.8830 C   0  0  0  0  0  3  0  0  0  0  0  0
   20.6380   10.9050   20.9860 C   0  0  0  0  0  3  0  0  0  0  0  0
   21.7080   10.7910   20.0980 C   0  0  0  0  0  3  0  0  0  0  0  0
   18.2300    8.3100   19.6140 C   0  0  0  0  0  1  0  0  0  0  0  0
   25.3460   11.2680   15.9620 C   0  0  0  0  0  3  0  0  0  0  0  0
   26.3210   11.7510   16.8910 O   0  0  0  0  0  0  0  0  0  0  0  0
   26.8390   12.4200   16.3990 H   0  0  0  0  0  0  0  0  0  0  0  0
   24.5600   12.4400   15.3530 C   0  0  0  0  0  2  0  0  0  0  0  0
   24.4530   12.3480   13.8450 C   0  0  0  0  0  0  0  0  0  0  0  0
   24.5370   11.1080   13.1980 C   0  0  0  0  0  3  0  0  0  0  0  0
   24.2670   13.5040   13.0730 C   0  0  0  0  0  3  0  0  0  0  0  0
   24.4340   11.0240   11.8090 C   0  0  0  0  0  3  0  0  0  0  0  0
   24.1640   13.4180   11.6830 C   0  0  0  0  0  3  0  0  0  0  0  0
   24.2470   12.1790   11.0520 C   0  0  0  0  0  3  0  0  0  0  0  0
  1  7  1  0
  2  1  2  0
  3  2  1  0
  4  3  2  0
  4  5  1  1
  5  6  1  0
  5  1  1  0
  7 12  1  0
  8  9  2  0
  9 11  1  0
 10  7  2  0
 10  8  1  0
 12 11  2  0
 13  8  1  0
 14 17  1  0
 14  4  1  0
 14 15  1  0
 16 15  1  0
 18 17  1  0
 19 18  1  0
 20 18  2  0
 21 19  2  0
 22 20  1  0
 23 22  2  0
 23 21  1  0
M  END
>  <vina_score>  (5) 
-6.899

>  <pose_id>  (5) 
5

$$$$
