
     RDKit          3D

 23 25  0  0  1  0  0  0  0  0999 V2000
   23.4390   12.7310   11.8620 C   0  0  0  0  0  0  0  0  0  0  0  0
   23.9710   11.9230   12.8700 C   0  0  0  0  0  3  0  0  0  0  0  0
   23.1850   11.5850   13.9720 C   0  0  0  0  0  3  0  0  0  0  0  0
   21.8670   12.0400   14.0670 C   0  0  0  0  0  3  0  0  0  0  0  0
   21.3100   12.8220   13.0560 C   0  0  0  0  0  0  0  0  0  0  0  0
   22.1140   13.1850   11.9680 C   0  0  0  0  0  3  0  0  0  0  0  0
   24.2350   13.1450   10.6700 C   0  0  0  0  0  0  0  0  0  0  0  0
   25.2890   12.5680   10.4100 O   0  0  0  0  0  0  0  0  0  0  0  0
   23.7210   14.2620    9.8000 C   0  0  0  0  0  1  0  0  0  0  0  0
   20.0020   13.3500   13.0930 N   0  0  0  0  0  0  0  0  0  0  0  0
   19.4910   14.5180   13.6680 C   0  0  0  0  0  0  0  0  0  0  0  0
   20.2430   15.3640   14.9100 S   0  0  0  0  0  0  0  0  0  0  0  0
   19.2700   12.6910   12.8570 H   0  0  0  0  0  0  0  0  0  0  0  0
   18.2580   14.8640   13.0720 N   0  0  0  0  0  0  0  0  0  0  0  0
   17.9860   15.3040   11.7510 C   0  0  0  0  0  0  0  0  0  0  0  0
   16.9440   14.5740   13.7270 C   0  0  0  0  0  3  0  0  0  0  0  0
   18.8500   15.6550   10.7260 C   0  0  0  0  0  3  0  0  0  0  0  0
   16.6070   15.4370   11.5600 C   0  0  0  0  0  0  0  0  0  0  0  0
   15.8470   15.1480   12.8120 C   0  0  0  0  0  2  0  0  0  0  0  0
   18.3200   16.0830    9.5010 C   0  0  0  0  0  3  0  0  0  0  0  0
   16.0680   15.8670   10.3550 C   0  0  0  0  0  3  0  0  0  0  0  0
   16.9360   16.1800    9.3140 C   0  0  0  0  0  3  0  0  0  0  0  0
   16.7470   13.0670   13.9280 C   0  0  0  0  0  1  0  0  0  0  0  0
  1  6  2  0
  1  2  1  0
  2  3  2  0
  3  4  1  0
  5 10  1  0
  5  4  2  0
  6  5  1  0
  7  1  1  0
  8  7  2  0
  9  7  1  0
 10 11  1  0
 11 12  2  0
 13 10  1  0
 14 11  1  0
 14 16  1  0
 15 14  1  0
 16 23  1  0
 17 15  2  0
 18 15  1  0
 18 19  1  0
 19 16  1  0
 20 17  1  0
 21 18  2  0
 22 20  2  0
 22 21  1  0
M  RAD  8   2   2   3   2   4   2   6   2   9   2  16   2  17   2  19   3
M  RAD  4  20   2  21   2  22   2  23   2
M  END
>  <vina_score>  (1) 
-7.391

>  <pose_id>  (1) 
1

$$$$

     RDKit          3D

 23 25  0  0  1  0  0  0  0  0999 V2000
   18.4620   11.3030   21.6570 C   0  0  0  0  0  0  0  0  0  0  0  0
   19.6460   10.6900   22.0770 C   0  0  0  0  0  3  0  0  0  0  0  0
   20.7330   10.6180   21.2070 C   0  0  0  0  0  3  0  0  0  0  0  0
   20.6500   11.1660   19.9230 C   0  0  0  0  0  3  0  0  0  0  0  0
   19.4860   11.8080   19.4990 C   0  0  0  0  0  0  0  0  0  0  0  0
   18.3870   11.8480   20.3650 C   0  0  0  0  0  3  0  0  0  0  0  0
   17.2580   11.3920   22.5330 C   0  0  0  0  0  0  0  0  0  0  0  0
   16.1920   10.9050   22.1580 O   0  0  0  0  0  0  0  0  0  0  0  0
   17.3760   12.0730   23.8710 C   0  0  0  0  0  1  0  0  0  0  0  0
   19.3100   12.3540   18.2090 N   0  0  0  0  0  0  0  0  0  0  0  0
   18.7770   11.8070   17.0380 C   0  0  0  0  0  0  0  0  0  0  0  0
   18.6560   10.1580   16.7380 S   0  0  0  0  0  0  0  0  0  0  0  0
   19.8390   13.1980   18.0280 H   0  0  0  0  0  0  0  0  0  0  0  0
   18.3780   12.8320   16.1510 N   0  0  0  0  0  0  0  0  0  0  0  0
   18.8880   13.1650   14.8690 C   0  0  0  0  0  0  0  0  0  0  0  0
   17.1230   13.6210   16.3530 C   0  0  0  0  0  3  0  0  0  0  0  0
   19.9970   12.6840   14.1910 C   0  0  0  0  0  3  0  0  0  0  0  0
   18.1280   14.1910   14.2990 C   0  0  0  0  0  0  0  0  0  0  0  0
   17.0650   14.6720   15.2300 C   0  0  0  0  0  2  0  0  0  0  0  0
   20.2990   13.1990   12.9230 C   0  0  0  0  0  3  0  0  0  0  0  0
   18.4210   14.7160   13.0480 C   0  0  0  0  0  3  0  0  0  0  0  0
   19.5110   14.2040   12.3510 C   0  0  0  0  0  3  0  0  0  0  0  0
   15.8880   12.7140   16.3100 C   0  0  0  0  0  1  0  0  0  0  0  0
  1  2  1  0
  1  7  1  0
  3  2  2  0
  4  3  1  0
  5  4  2  0
  5  6  1  0
  6  1  2  0
  7  9  1  0
  8  7  2  0
 10  5  1  0
 11 10  1  0
 12 11  2  0
 13 10  1  0
 14 16  1  0
 14 11  1  0
 15 14  1  0
 16 23  1  0
 17 15  2  0
 18 15  1  0
 18 19  1  0
 19 16  1  0
 20 17  1  0
 21 18  2  0
 22 20  2  0
 22 21  1  0
M  RAD  8   2   2   3   2   4   2   6   2   9   2  16   2  17   2  19   3
M  RAD  4  20   2  21   2  22   2  23   2
M  END
>  <vina_score>  (2) 
-7.1189999999999998

>  <pose_id>  (2) 
2

$$$$

     RDKit          3D

 23 25  0  0  1  0  0  0  0  0999 V2000
   18.5140   11.6320   19.7010 C   0  0  0  0  0  0  0  0  0  0  0  0
   17.2090   11.1970   19.9480 C   0  0  0  0  0  3  0  0  0  0  0  0
   16.2400   11.3160   18.9510 C   0  0  0  0  0  3  0  0  0  0  0  0
   16.5710   11.8560   17.7040 C   0  0  0  0  0  3  0  0  0  0  0  0
   17.8750   12.2670   17.4310 C   0  0  0  0  0  0  0  0  0  0  0  0
   18.8350   12.1750   18.4470 C   0  0  0  0  0  3  0  0  0  0  0  0
   19.5880   11.5510   20.7320 C   0  0  0  0  0  0  0  0  0  0  0  0
   20.7040   12.0080   20.4890 O   0  0  0  0  0  0  0  0  0  0  0  0
   19.2780   10.9150   22.0620 C   0  0  0  0  0  1  0  0  0  0  0  0
   18.2810   12.8540   16.2140 N   0  0  0  0  0  0  0  0  0  0  0  0
   18.7360   12.2870   15.0190 C   0  0  0  0  0  0  0  0  0  0  0  0
   19.3910   10.7450   14.8970 S   0  0  0  0  0  0  0  0  0  0  0  0
   18.4840   13.8450   16.2660 H   0  0  0  0  0  0  0  0  0  0  0  0
   18.5810   13.1970   13.9500 N   0  0  0  0  0  0  0  0  0  0  0  0
   17.3960   13.6590   13.3220 C   0  0  0  0  0  0  0  0  0  0  0  0
   19.7120   14.0370   13.4450 C   0  0  0  0  0  3  0  0  0  0  0  0
   16.0800   13.2500   13.4750 C   0  0  0  0  0  3  0  0  0  0  0  0
   17.7030   14.6350   12.3690 C   0  0  0  0  0  0  0  0  0  0  0  0
   19.1760   14.8450   12.2490 C   0  0  0  0  0  2  0  0  0  0  0  0
   15.0800   13.8650   12.7090 C   0  0  0  0  0  3  0  0  0  0  0  0
   16.7230   15.2470   11.5980 C   0  0  0  0  0  3  0  0  0  0  0  0
   15.3980   14.8630   11.7820 C   0  0  0  0  0  3  0  0  0  0  0  0
   20.2360   14.9740   14.5390 C   0  0  0  0  0  1  0  0  0  0  0  0
  1  2  1  0
  1  7  1  0
  3  2  2  0
  4  3  1  0
  5  4  2  0
  5  6  1  0
  6  1  2  0
  7  9  1  0
  8  7  2  0
 10 13  1  0
 10  5  1  0
 11 10  1  0
 12 11  2  0
 14 11  1  0
 15 17  2  0
 15 14  1  0
 16 14  1  0
 16 23  1  0
 18 15  1  0
 19 18  1  0
 19 16  1  0
 20 17  1  0
 21 22  1  0
 21 18  2  0
 22 20  2  0
M  RAD  8   2   2   3   2   4   2   6   2   9   2  16   2  17   2  19   3
M  RAD  4  20   2  21   2  22   2  23   2
M  END
>  <vina_score>  (3) 
-7.0289999999999999

>  <pose_id>  (3) 
3

$$$$

     RDKit          3D

 23 25  0  0  1  0  0  0  0  0999 V2000
   18.6910   11.6630   19.1460 C   0  0  0  0  0  0  0  0  0  0  0  0
   17.4540   11.1680   19.5690 C   0  0  0  0  0  3  0  0  0  0  0  0
   16.3210   11.3750   18.7830 C   0  0  0  0  0  3  0  0  0  0  0  0
   16.4170   12.0650   17.5710 C   0  0  0  0  0  3  0  0  0  0  0  0
   17.6480   12.5400   17.1200 C   0  0  0  0  0  0  0  0  0  0  0  0
   18.7760   12.3570   17.9280 C   0  0  0  0  0  3  0  0  0  0  0  0
   19.9350   11.4920   19.9510 C   0  0  0  0  0  0  0  0  0  0  0  0
   19.9890   11.9430   21.0940 O   0  0  0  0  0  0  0  0  0  0  0  0
   21.1030   10.7590   19.3450 C   0  0  0  0  0  1  0  0  0  0  0  0
   17.8230   13.2760   15.9280 N   0  0  0  0  0  0  0  0  0  0  0  0
   18.1350   12.8690   14.6270 C   0  0  0  0  0  0  0  0  0  0  0  0
   18.8790   11.4100   14.2490 S   0  0  0  0  0  0  0  0  0  0  0  0
   17.9570   14.2710   16.0580 H   0  0  0  0  0  0  0  0  0  0  0  0
   17.7560   13.8600   13.6950 N   0  0  0  0  0  0  0  0  0  0  0  0
   18.5110   14.4530   12.6500 C   0  0  0  0  0  0  0  0  0  0  0  0
   16.3340   14.2900   13.5190 C   0  0  0  0  0  3  0  0  0  0  0  0
   19.8570   14.3390   12.3380 C   0  0  0  0  0  3  0  0  0  0  0  0
   17.7060   15.3210   11.9050 C   0  0  0  0  0  0  0  0  0  0  0  0
   16.3280   15.4170   12.4710 C   0  0  0  0  0  2  0  0  0  0  0  0
   20.3690   15.0550   11.2470 C   0  0  0  0  0  3  0  0  0  0  0  0
   18.2020   16.0420   10.8270 C   0  0  0  0  0  3  0  0  0  0  0  0
   19.5440   15.8960   10.4910 C   0  0  0  0  0  3  0  0  0  0  0  0
   15.4560   13.1200   13.0600 C   0  0  0  0  0  1  0  0  0  0  0  0
  1  2  1  0
  1  7  1  0
  3  2  2  0
  4  3  1  0
  5  4  2  0
  5  6  1  0
  6  1  2  0
  7  8  2  0
  9  7  1  0
 10 13  1  0
 10  5  1  0
 11 10  1  0
 12 11  2  0
 14 11  1  0
 15 14  1  0
 16 23  1  0
 16 14  1  0
 17 15  2  0
 18 19  1  0
 18 15  1  0
 19 16  1  0
 20 17  1  0
 21 18  2  0
 22 21  1  0
 22 20  2  0
M  RAD  8   2   2   3   2   4   2   6   2   9   2  16   2  17   2  19   3
M  RAD  4  20   2  21   2  22   2  23   2
M  END
>  <vina_score>  (4) 
-6.9379999999999997

>  <pose_id>  (4) 
4

$$$$

     RDKit          3D

 23 25  0  0  1  0  0  0  0  0999 V2000
   18.6120   11.2660   21.2710 C   0  0  0  0  0  0  0  0  0  0  0  0
   19.8720   10.8660   21.7240 C   0  0  0  0  0  3  0  0  0  0  0  0
   20.9460   10.8280   20.8340 C   0  0  0  0  0  3  0  0  0  0  0  0
   20.7710   11.1970   19.4970 C   0  0  0  0  0  3  0  0  0  0  0  0
   19.5270   11.6270   19.0370 C   0  0  0  0  0  0  0  0  0  0  0  0
   18.4450   11.6330   19.9270 C   0  0  0  0  0  3  0  0  0  0  0  0
   17.4210   11.3070   22.1680 C   0  0  0  0  0  0  0  0  0  0  0  0
   16.3330   10.9070   21.7570 O   0  0  0  0  0  0  0  0  0  0  0  0
   17.5790   11.8340   23.5700 C   0  0  0  0  0  1  0  0  0  0  0  0
   19.2590   11.9830   17.6970 N   0  0  0  0  0  0  0  0  0  0  0  0
   18.6630   11.2710   16.6520 C   0  0  0  0  0  0  0  0  0  0  0  0
   18.5520    9.5950   16.5970 S   0  0  0  0  0  0  0  0  0  0  0  0
   19.7610   12.7970   17.3640 H   0  0  0  0  0  0  0  0  0  0  0  0
   18.1920   12.1550   15.6570 N   0  0  0  0  0  0  0  0  0  0  0  0
   17.2490   13.2100   15.7600 C   0  0  0  0  0  0  0  0  0  0  0  0
   18.8360   12.2600   14.3100 C   0  0  0  0  0  3  0  0  0  0  0  0
   16.4260   13.5790   16.8120 C   0  0  0  0  0  3  0  0  0  0  0  0
   17.1550   13.8950   14.5440 C   0  0  0  0  0  0  0  0  0  0  0  0
   18.0120   13.2710   13.4930 C   0  0  0  0  0  2  0  0  0  0  0  0
   15.5560   14.6670   16.6500 C   0  0  0  0  0  3  0  0  0  0  0  0
   16.2930   14.9690   14.3670 C   0  0  0  0  0  3  0  0  0  0  0  0
   15.4960   15.3630   15.4380 C   0  0  0  0  0  3  0  0  0  0  0  0
   20.2940   12.7200   14.4300 C   0  0  0  0  0  1  0  0  0  0  0  0
  1  2  1  0
  1  7  1  0
  3  2  2  0
  4  3  1  0
  5  4  2  0
  5  6  1  0
  6  1  2  0
  7  9  1  0
  8  7  2  0
 10  5  1  0
 11 10  1  0
 12 11  2  0
 13 10  1  0
 14 15  1  0
 14 11  1  0
 15 17  2  0
 16 23  1  0
 16 14  1  0
 18 15  1  0
 19 16  1  0
 19 18  1  0
 20 17  1  0
 21 18  2  0
 21 22  1  0
 22 20  2  0
M  RAD  8   2   2   3   2   4   2   6   2   9   2  16   2  17   2  19   3
M  RAD  4  20   2  21   2  22   2  23   2
M  END
>  <vina_score>  (5) 
-6.8650000000000002

>  <pose_id>  (5) 
5

$$$$
