
     RDKit          3D

 26 28  0  0  1  0  0  0  0  0999 V2000
   16.3930   14.1830   14.1880 C   0  0  0  0  0  0  0  0  0  0  0  0
   15.0870   14.9790   14.2270 C   0  0  0  0  0  2  0  0  0  0  0  0
   15.0890   15.6810   15.5820 C   0  0  0  0  0  2  0  0  0  0  0  0
   16.1400   14.9570   16.4300 C   0  0  0  0  0  2  0  0  0  0  0  0
   16.5490   13.7920   15.6130 N   0  0  0  0  0  0  0  0  0  0  0  0
   17.5550   14.9990   13.5980 C   0  0  0  0  0  0  0  0  0  0  0  0
   18.2760   14.2890   12.6500 N   0  0  0  0  0  0  0  0  0  0  0  0
   17.7710   16.1550   13.9560 O   0  0  0  0  0  0  0  0  0  0  0  0
   18.0400   13.3020   12.5440 H   0  0  0  0  0  0  0  0  0  0  0  0
   19.3630   14.7370   11.8740 C   0  0  0  0  0  0  0  0  0  0  0  0
   21.4200   15.7180   10.2050 C   0  0  0  0  0  0  0  0  0  0  0  0
   20.0790   15.9390    9.8800 C   0  0  0  0  0  3  0  0  0  0  0  0
   21.7220   15.0190   11.3760 C   0  0  0  0  0  3  0  0  0  0  0  0
   19.0600   15.4500   10.7060 C   0  0  0  0  0  3  0  0  0  0  0  0
   20.7010   14.5230   12.2020 C   0  0  0  0  0  3  0  0  0  0  0  0
   22.5200   16.2410    9.3310 C   0  0  0  0  0  1  0  0  0  0  0  0
   17.9370   12.9500   16.0460 S   0  0  2  0  0  0  0  0  0  0  0  0
   18.9950   13.8890   16.3300 O   0  0  0  0  0  0  0  0  0  0  0  0
   18.1180   11.9420   15.0160 O   0  0  0  0  0  0  0  0  0  0  0  0
   17.4510   12.1260   17.5230 C   0  0  0  0  0  0  0  0  0  0  0  0
   16.0900   12.0110   17.8380 C   0  0  0  0  0  3  0  0  0  0  0  0
   18.4090   11.5650   18.3550 C   0  0  0  0  0  0  0  0  0  0  0  0
   15.7030   11.3310   18.9960 C   0  0  0  0  0  3  0  0  0  0  0  0
   18.0230   10.8880   19.5110 C   0  0  0  0  0  3  0  0  0  0  0  0
   16.6700   10.7660   19.8290 C   0  0  0  0  0  3  0  0  0  0  0  0
   19.7180   11.6870   18.1010 F   0  0  0  0  0  0  0  0  0  0  0  0
  1  6  1  0
  1  2  1  0
  1  5  1  0
  2  3  1  0
  3  4  1  0
 17  5  1  6
  5  4  1  0
  6  8  2  0
  7  6  1  0
  9  7  1  0
 10 15  2  0
 10  7  1  0
 11 13  2  0
 12 11  1  0
 12 14  2  0
 13 15  1  0
 14 10  1  0
 16 11  1  0
 17 18  2  0
 17 20  1  0
 19 17  2  0
 20 21  2  0
 20 22  1  0
 21 23  1  0
 22 24  2  0
 23 25  2  0
 24 25  1  0
 26 22  1  0
M  RAD  8   2   3   3   3   4   3  12   2  13   2  14   2  15   2  16   2
M  RAD  4  21   2  23   2  24   2  25   2
M  END
>  <vina_score>  (1) 
-7.4729999999999999

>  <pose_id>  (1) 
1

$$$$

     RDKit          3D

 26 28  0  0  1  0  0  0  0  0999 V2000
   19.3180   11.5400   15.1250 C   0  0  0  0  0  0  0  0  0  0  0  0
   20.2080   10.3340   14.8190 C   0  0  0  0  0  2  0  0  0  0  0  0
   19.3890    9.1170   15.2390 C   0  0  0  0  0  2  0  0  0  0  0  0
   18.2730    9.6520   16.1430 C   0  0  0  0  0  2  0  0  0  0  0  0
   18.6020   11.0810   16.3430 N   0  0  0  0  0  0  0  0  0  0  0  0
   18.4200   11.9180   13.9360 C   0  0  0  0  0  0  0  0  0  0  0  0
   17.9590   13.2230   14.0120 N   0  0  0  0  0  0  0  0  0  0  0  0
   18.1770   11.1150   13.0380 O   0  0  0  0  0  0  0  0  0  0  0  0
   18.1590   13.7280   14.8760 H   0  0  0  0  0  0  0  0  0  0  0  0
   17.1640   13.9170   13.0780 C   0  0  0  0  0  0  0  0  0  0  0  0
   15.7260   15.3940   11.1470 C   0  0  0  0  0  0  0  0  0  0  0  0
   17.0970   15.6010   11.3190 C   0  0  0  0  0  3  0  0  0  0  0  0
   15.0860   14.4330   11.9350 C   0  0  0  0  0  3  0  0  0  0  0  0
   17.8090   14.8710   12.2790 C   0  0  0  0  0  3  0  0  0  0  0  0
   15.7980   13.7060   12.9010 C   0  0  0  0  0  3  0  0  0  0  0  0
   14.9530   16.1660   10.1200 C   0  0  0  0  0  1  0  0  0  0  0  0
   17.4280   12.0960   16.9900 S   0  0  2  0  0  0  0  0  0  0  0  0
   16.1670   11.8430   16.3350 O   0  0  0  0  0  0  0  0  0  0  0  0
   18.0060   13.4280   16.9600 O   0  0  0  0  0  0  0  0  0  0  0  0
   17.3490   11.5830   18.6710 C   0  0  0  0  0  0  0  0  0  0  0  0
   16.1590   11.0420   19.1770 C   0  0  0  0  0  3  0  0  0  0  0  0
   18.4700   11.6840   19.4830 C   0  0  0  0  0  0  0  0  0  0  0  0
   16.1060   10.6070   20.5030 C   0  0  0  0  0  3  0  0  0  0  0  0
   18.4160   11.2520   20.8070 C   0  0  0  0  0  3  0  0  0  0  0  0
   17.2360   10.7080   21.3170 C   0  0  0  0  0  3  0  0  0  0  0  0
   19.6110   12.2280   19.0410 F   0  0  0  0  0  0  0  0  0  0  0  0
  1  6  1  0
  1  5  1  0
  2  1  1  0
  2  3  1  0
  3  4  1  0
  4  5  1  0
 17  5  1  6
  6  7  1  0
  7  9  1  0
  8  6  2  0
 10  7  1  0
 11 12  1  0
 11 13  2  0
 12 14  2  0
 13 15  1  0
 14 10  1  0
 15 10  2  0
 16 11  1  0
 17 20  1  0
 18 17  2  0
 19 17  2  0
 20 21  2  0
 20 22  1  0
 21 23  1  0
 22 24  2  0
 23 25  2  0
 24 25  1  0
 26 22  1  0
M  RAD  8   2   3   3   3   4   3  12   2  13   2  14   2  15   2  16   2
M  RAD  4  21   2  23   2  24   2  25   2
M  END
>  <vina_score>  (2) 
-7.4420000000000002

>  <pose_id>  (2) 
2

$$$$

     RDKit          3D

 26 28  0  0  1  0  0  0  0  0999 V2000
   23.8720    8.1960   15.8020 C   0  0  0  0  0  0  0  0  0  0  0  0
   25.1060    7.2950   15.7340 C   0  0  0  0  0  2  0  0  0  0  0  0
   26.2960    8.2500   15.7290 C   0  0  0  0  0  2  0  0  0  0  0  0
   25.7300    9.6270   15.3670 C   0  0  0  0  0  2  0  0  0  0  0  0
   24.3150    9.3720   15.0110 N   0  0  0  0  0  0  0  0  0  0  0  0
   23.4490    8.4960   17.2490 C   0  0  0  0  0  0  0  0  0  0  0  0
   22.2340    9.1610   17.3210 N   0  0  0  0  0  0  0  0  0  0  0  0
   24.1440    8.1540   18.2030 O   0  0  0  0  0  0  0  0  0  0  0  0
   21.8320    9.4730   16.4370 H   0  0  0  0  0  0  0  0  0  0  0  0
   21.5230    9.5440   18.4750 C   0  0  0  0  0  0  0  0  0  0  0  0
   20.2260   10.4450   20.8170 C   0  0  0  0  0  0  0  0  0  0  0  0
   21.4280   11.0270   20.4050 C   0  0  0  0  0  3  0  0  0  0  0  0
   19.6730    9.4230   20.0410 C   0  0  0  0  0  3  0  0  0  0  0  0
   22.0710   10.5780   19.2460 C   0  0  0  0  0  3  0  0  0  0  0  0
   20.3210    8.9690   18.8830 C   0  0  0  0  0  3  0  0  0  0  0  0
   19.5240   10.9200   22.0540 C   0  0  0  0  0  1  0  0  0  0  0  0
   23.2640   10.6790   14.8950 S   0  0  2  0  0  0  0  0  0  0  0  0
   23.4960   11.5760   16.0010 O   0  0  0  0  0  0  0  0  0  0  0  0
   21.9470   10.1020   14.6930 O   0  0  0  0  0  0  0  0  0  0  0  0
   23.7530   11.4420   13.3870 C   0  0  0  0  0  0  0  0  0  0  0  0
   23.9940   12.8230   13.3530 C   0  0  0  0  0  3  0  0  0  0  0  0
   23.9300   10.6750   12.2440 C   0  0  0  0  0  0  0  0  0  0  0  0
   24.4110   13.4230   12.1630 C   0  0  0  0  0  3  0  0  0  0  0  0
   24.3440   11.2740   11.0550 C   0  0  0  0  0  3  0  0  0  0  0  0
   24.5900   12.6470   11.0150 C   0  0  0  0  0  3  0  0  0  0  0  0
   23.6750    9.3610   12.2340 F   0  0  0  0  0  0  0  0  0  0  0  0
  1  6  1  0
  2  1  1  0
  3  2  1  0
  4  3  1  0
  5  4  1  0
  5  1  1  0
  6  7  1  0
  6  8  2  0
  7 10  1  0
  9  7  1  0
 10 15  2  0
 10 14  1  0
 11 16  1  0
 12 11  1  0
 13 11  2  0
 14 12  2  0
 15 13  1  0
 17  5  1  1
 17 18  2  0
 19 17  2  0
 20 17  1  0
 21 20  2  0
 22 20  1  0
 23 21  1  0
 24 22  2  0
 25 24  1  0
 25 23  2  0
 26 22  1  0
M  RAD  8   2   3   3   3   4   3  12   2  13   2  14   2  15   2  16   2
M  RAD  4  21   2  23   2  24   2  25   2
M  END
>  <vina_score>  (3) 
-7.2750000000000004

>  <pose_id>  (3) 
3

$$$$

     RDKit          3D

 26 28  0  0  1  0  0  0  0  0999 V2000
   17.7930   11.3040   14.5620 C   0  0  0  0  0  0  0  0  0  0  0  0
   17.3400   10.0650   13.7860 C   0  0  0  0  0  2  0  0  0  0  0  0
   18.5670    9.6190   12.9960 C   0  0  0  0  0  2  0  0  0  0  0  0
   19.5260   10.8150   12.9970 C   0  0  0  0  0  2  0  0  0  0  0  0
   18.7530   11.9190   13.6090 N   0  0  0  0  0  0  0  0  0  0  0  0
   18.3700   10.9480   15.9420 C   0  0  0  0  0  0  0  0  0  0  0  0
   17.8820   11.7670   16.9480 N   0  0  0  0  0  0  0  0  0  0  0  0
   19.1660   10.0230   16.0830 O   0  0  0  0  0  0  0  0  0  0  0  0
   17.3120   12.5600   16.6550 H   0  0  0  0  0  0  0  0  0  0  0  0
   18.1510   11.6950   18.3300 C   0  0  0  0  0  0  0  0  0  0  0  0
   18.5200   11.4750   21.1210 C   0  0  0  0  0  0  0  0  0  0  0  0
   17.3090   11.0980   20.5360 C   0  0  0  0  0  3  0  0  0  0  0  0
   19.5470   11.9460   20.2990 C   0  0  0  0  0  3  0  0  0  0  0  0
   17.1250   11.2100   19.1530 C   0  0  0  0  0  3  0  0  0  0  0  0
   19.3610   12.0650   18.9130 C   0  0  0  0  0  3  0  0  0  0  0  0
   18.7320   11.3550   22.6010 C   0  0  0  0  0  1  0  0  0  0  0  0
   19.5730   13.2990   14.1070 S   0  0  2  0  0  0  0  0  0  0  0  0
   20.9290   12.9480   14.4510 O   0  0  0  0  0  0  0  0  0  0  0  0
   18.7130   13.9270   15.0950 O   0  0  0  0  0  0  0  0  0  0  0  0
   19.5570   14.3060   12.6640 C   0  0  0  0  0  0  0  0  0  0  0  0
   20.7670   14.6610   12.0520 C   0  0  0  0  0  3  0  0  0  0  0  0
   18.3510   14.7200   12.1170 C   0  0  0  0  0  0  0  0  0  0  0  0
   20.7530   15.4360   10.8890 C   0  0  0  0  0  3  0  0  0  0  0  0
   18.3360   15.4940   10.9580 C   0  0  0  0  0  3  0  0  0  0  0  0
   19.5360   15.8480   10.3400 C   0  0  0  0  0  3  0  0  0  0  0  0
   17.1800   14.4280   12.6970 F   0  0  0  0  0  0  0  0  0  0  0  0
  1  6  1  0
  2  1  1  0
  3  4  1  0
  3  2  1  0
  4  5  1  0
 17  5  1  6
  5  1  1  0
  6  8  2  0
  6  7  1  0
  7 10  1  0
  9  7  1  0
 10 15  2  0
 10 14  1  0
 11 16  1  0
 12 11  1  0
 13 11  2  0
 14 12  2  0
 15 13  1  0
 17 18  2  0
 17 19  2  0
 20 17  1  0
 21 20  2  0
 22 20  1  0
 22 26  1  0
 23 21  1  0
 24 22  2  0
 25 23  2  0
 25 24  1  0
M  RAD  8   2   3   3   3   4   3  12   2  13   2  14   2  15   2  16   2
M  RAD  4  21   2  23   2  24   2  25   2
M  END
>  <vina_score>  (4) 
-7.2000000000000002

>  <pose_id>  (4) 
4

$$$$

     RDKit          3D

 26 28  0  0  1  0  0  0  0  0999 V2000
   18.8470   13.0230   15.6590 C   0  0  0  0  0  0  0  0  0  0  0  0
   18.0390   11.7790   16.0350 C   0  0  0  0  0  2  0  0  0  0  0  0
   16.6830   11.9670   15.3630 C   0  0  0  0  0  2  0  0  0  0  0  0
   16.5970   13.4520   14.9950 C   0  0  0  0  0  2  0  0  0  0  0  0
   17.7910   14.0660   15.6190 N   0  0  0  0  0  0  0  0  0  0  0  0
   19.6340   12.8320   14.3520 C   0  0  0  0  0  0  0  0  0  0  0  0
   20.9510   13.2500   14.4590 N   0  0  0  0  0  0  0  0  0  0  0  0
   19.1070   12.3480   13.3530 O   0  0  0  0  0  0  0  0  0  0  0  0
   21.2080   13.7320   15.3200 H   0  0  0  0  0  0  0  0  0  0  0  0
   21.9660   13.1750   13.4840 C   0  0  0  0  0  0  0  0  0  0  0  0
   23.9310   13.1810   11.4550 C   0  0  0  0  0  0  0  0  0  0  0  0
   22.9340   14.1600   11.4770 C   0  0  0  0  0  3  0  0  0  0  0  0
   23.9460   12.2130   12.4610 C   0  0  0  0  0  3  0  0  0  0  0  0
   21.9590   14.1550   12.4820 C   0  0  0  0  0  3  0  0  0  0  0  0
   22.9650   12.2030   13.4650 C   0  0  0  0  0  3  0  0  0  0  0  0
   24.9840   13.1790   10.3870 C   0  0  0  0  0  1  0  0  0  0  0  0
   18.2390   15.6170   15.1510 S   0  0  2  0  0  0  0  0  0  0  0  0
   19.6760   15.7340   15.2080 O   0  0  0  0  0  0  0  0  0  0  0  0
   17.4060   16.5150   15.9300 O   0  0  0  0  0  0  0  0  0  0  0  0
   17.6940   15.6940   13.4800 C   0  0  0  0  0  0  0  0  0  0  0  0
   18.5840   15.3790   12.4430 C   0  0  0  0  0  3  0  0  0  0  0  0
   16.3800   16.0340   13.1910 C   0  0  0  0  0  0  0  0  0  0  0  0
   18.1420   15.4120   11.1180 C   0  0  0  0  0  3  0  0  0  0  0  0
   15.9400   16.0690   11.8690 C   0  0  0  0  0  3  0  0  0  0  0  0
   16.8190   15.7520   10.8320 C   0  0  0  0  0  3  0  0  0  0  0  0
   15.5150   16.3750   14.1540 F   0  0  0  0  0  0  0  0  0  0  0  0
  1  6  1  0
  1  2  1  0
  3  2  1  0
  4  3  1  0
  4  5  1  0
  5  1  1  0
  6  7  1  0
  7  9  1  0
  8  6  2  0
 10  7  1  0
 11 12  1  0
 11 13  2  0
 12 14  2  0
 13 15  1  0
 14 10  1  0
 15 10  2  0
 16 11  1  0
 17 18  2  0
 17  5  1  1
 17 19  2  0
 20 17  1  0
 21 20  2  0
 22 20  1  0
 22 26  1  0
 23 21  1  0
 24 22  2  0
 25 23  2  0
 25 24  1  0
M  RAD  8   2   3   3   3   4   3  12   2  13   2  14   2  15   2  16   2
M  RAD  4  21   2  23   2  24   2  25   2
M  END
>  <vina_score>  (5) 
-6.9969999999999999

>  <pose_id>  (5) 
5

$$$$
