
     RDKit          3D

 21 22  0  0  1  0  0  0  0  0999 V2000
   23.5800   14.2490    9.5180 C   0  0  0  0  0  2  0  0  0  0  0  0
   22.8610   15.4380   10.1690 C   0  0  0  0  0  2  0  0  0  0  0  0
   21.8600   15.0720   11.2730 C   0  0  0  0  0  3  0  0  0  0  0  0
   22.1950   15.8250   12.4440 O   0  0  0  0  0  0  0  0  0  0  0  0
   22.0530   16.7630   12.2260 H   0  0  0  0  0  0  0  0  0  0  0  0
   20.4150   15.3390   10.9030 C   0  0  0  0  0  0  0  0  0  0  0  0
   20.0790   15.9040    9.6630 C   0  0  0  0  0  3  0  0  0  0  0  0
   19.3850   15.0110   11.7950 C   0  0  0  0  0  3  0  0  0  0  0  0
   18.7460   16.1430    9.3280 C   0  0  0  0  0  3  0  0  0  0  0  0
   18.0510   15.2500   11.4580 C   0  0  0  0  0  3  0  0  0  0  0  0
   17.7320   15.8160   10.2250 C   0  0  0  0  0  3  0  0  0  0  0  0
   24.6370   13.6130   10.4320 C   0  0  0  0  0  2  0  0  0  0  0  0
   24.3270   12.1700   10.8600 C   0  0  0  0  0  3  0  0  0  0  0  0
   25.1970   11.2700   10.1740 O   0  0  0  0  0  0  0  0  0  0  0  0
   26.0620   11.7100   10.1120 H   0  0  0  0  0  0  0  0  0  0  0  0
   24.3590   11.9430   12.3570 C   0  0  0  0  0  0  0  0  0  0  0  0
   24.4310   10.6530   12.9050 C   0  0  0  0  0  3  0  0  0  0  0  0
   24.3360   13.0420   13.2300 C   0  0  0  0  0  3  0  0  0  0  0  0
   24.4660   10.4660   14.2880 C   0  0  0  0  0  3  0  0  0  0  0  0
   24.3710   12.8540   14.6130 C   0  0  0  0  0  3  0  0  0  0  0  0
   24.4350   11.5670   15.1410 C   0  0  0  0  0  3  0  0  0  0  0  0
  1  2  1  0
  1 12  1  0
  3  2  1  0
  3  4  1  0
  5  4  1  0
  6  3  1  0
  6  8  1  0
  7  6  2  0
  9  7  1  0
  9 11  2  0
 10  8  2  0
 11 10  1  0
 13 12  1  0
 13 16  1  0
 14 13  1  0
 15 14  1  0
 16 17  2  0
 16 18  1  0
 17 19  1  0
 18 20  2  0
 19 21  2  0
 20 21  1  0
M  RAD  8   1   3   2   3   3   2   7   2   8   2   9   2  10   2  11   2
M  RAD  7  12   3  13   2  17   2  18   2  19   2  20   2  21   2
M  END
>  <vina_score>  (1) 
-6.5659999999999998

>  <pose_id>  (1) 
1

$$$$

     RDKit          3D

 21 22  0  0  1  0  0  0  0  0999 V2000
   15.9700   10.6190   21.5120 C   0  0  0  0  0  2  0  0  0  0  0  0
   16.6530   10.8930   22.8590 C   0  0  0  0  0  2  0  0  0  0  0  0
   17.7880   11.9270   22.8170 C   0  0  0  0  0  3  0  0  0  0  0  0
   18.4130   11.9520   24.1050 O   0  0  0  0  0  0  0  0  0  0  0  0
   18.8370   12.8220   24.1960 H   0  0  0  0  0  0  0  0  0  0  0  0
   18.8350   11.6430   21.7590 C   0  0  0  0  0  0  0  0  0  0  0  0
   18.7810   12.2640   20.5020 C   0  0  0  0  0  3  0  0  0  0  0  0
   19.8900   10.7590   22.0290 C   0  0  0  0  0  3  0  0  0  0  0  0
   19.7510   12.0000   19.5350 C   0  0  0  0  0  3  0  0  0  0  0  0
   20.8620   10.4960   21.0610 C   0  0  0  0  0  3  0  0  0  0  0  0
   20.7910   11.1170   19.8150 C   0  0  0  0  0  3  0  0  0  0  0  0
   15.5800    9.1460   21.3270 C   0  0  0  0  0  2  0  0  0  0  0  0
   15.6340    8.6500   19.8730 C   0  0  0  0  0  3  0  0  0  0  0  0
   14.8040    9.4740   19.0550 O   0  0  0  0  0  0  0  0  0  0  0  0
   14.3520   10.0960   19.6510 H   0  0  0  0  0  0  0  0  0  0  0  0
   17.0340    8.5330   19.3050 C   0  0  0  0  0  0  0  0  0  0  0  0
   18.0250    7.7700   19.9410 C   0  0  0  0  0  3  0  0  0  0  0  0
   17.3550    9.1820   18.1030 C   0  0  0  0  0  3  0  0  0  0  0  0
   19.3070    7.6680   19.3970 C   0  0  0  0  0  3  0  0  0  0  0  0
   18.6370    9.0810   17.5600 C   0  0  0  0  0  3  0  0  0  0  0  0
   19.6120    8.3260   18.2070 C   0  0  0  0  0  3  0  0  0  0  0  0
  1  2  1  0
  3  2  1  0
  3  4  1  0
  4  5  1  0
  6  8  1  0
  6  3  1  0
  7  6  2  0
  9 11  2  0
  9  7  1  0
 10  8  2  0
 11 10  1  0
 12  1  1  0
 13 12  1  0
 14 15  1  0
 14 13  1  0
 16 13  1  0
 16 17  2  0
 18 16  1  0
 19 17  1  0
 20 18  2  0
 20 21  1  0
 21 19  2  0
M  RAD  8   1   3   2   3   3   2   7   2   8   2   9   2  10   2  11   2
M  RAD  7  12   3  13   2  17   2  18   2  19   2  20   2  21   2
M  END
>  <vina_score>  (2) 
-6.4850000000000003

>  <pose_id>  (2) 
2

$$$$

     RDKit          3D

 21 22  0  0  1  0  0  0  0  0999 V2000
   19.2090   11.3620   22.3060 C   0  0  0  0  0  2  0  0  0  0  0  0
   19.6050   11.1540   20.8390 C   0  0  0  0  0  2  0  0  0  0  0  0
   20.0370    9.7260   20.4750 C   0  0  0  0  0  3  0  0  0  0  0  0
   20.1900    8.9850   21.6910 O   0  0  0  0  0  0  0  0  0  0  0  0
   19.9290    8.0690   21.4970 H   0  0  0  0  0  0  0  0  0  0  0  0
   19.0620    9.0040   19.5690 C   0  0  0  0  0  0  0  0  0  0  0  0
   18.4220    7.8260   19.9850 C   0  0  0  0  0  3  0  0  0  0  0  0
   18.7710    9.5140   18.2950 C   0  0  0  0  0  3  0  0  0  0  0  0
   17.5220    7.1700   19.1460 C   0  0  0  0  0  3  0  0  0  0  0  0
   17.8690    8.8560   17.4560 C   0  0  0  0  0  3  0  0  0  0  0  0
   17.2450    7.6850   17.8820 C   0  0  0  0  0  3  0  0  0  0  0  0
   17.8540   12.0650   22.4680 C   0  0  0  0  0  2  0  0  0  0  0  0
   16.7050   11.1430   22.9030 C   0  0  0  0  0  3  0  0  0  0  0  0
   15.8240   11.8520   23.7740 O   0  0  0  0  0  0  0  0  0  0  0  0
   15.4870   12.6130   23.2710 H   0  0  0  0  0  0  0  0  0  0  0  0
   15.9530   10.4980   21.7550 C   0  0  0  0  0  0  0  0  0  0  0  0
   15.9030   11.0890   20.4840 C   0  0  0  0  0  3  0  0  0  0  0  0
   15.3040    9.2690   21.9500 C   0  0  0  0  0  3  0  0  0  0  0  0
   15.2110   10.4750   19.4380 C   0  0  0  0  0  3  0  0  0  0  0  0
   14.6120    8.6560   20.9040 C   0  0  0  0  0  3  0  0  0  0  0  0
   14.5650    9.2600   19.6500 C   0  0  0  0  0  3  0  0  0  0  0  0
  1 12  1  0
  2  1  1  0
  3  2  1  0
  3  4  1  0
  5  4  1  0
  6  7  2  0
  6  3  1  0
  8  6  1  0
  9  7  1  0
 10 11  1  0
 10  8  2  0
 11  9  2  0
 13 12  1  0
 13 14  1  0
 15 14  1  0
 16 18  1  0
 16 13  1  0
 17 16  2  0
 19 21  2  0
 19 17  1  0
 20 18  2  0
 21 20  1  0
M  RAD  8   1   3   2   3   3   2   7   2   8   2   9   2  10   2  11   2
M  RAD  7  12   3  13   2  17   2  18   2  19   2  20   2  21   2
M  END
>  <vina_score>  (3) 
-6.4409999999999998

>  <pose_id>  (3) 
3

$$$$

     RDKit          3D

 21 22  0  0  1  0  0  0  0  0999 V2000
   26.6200    8.1890   16.8810 C   0  0  0  0  0  2  0  0  0  0  0  0
   25.3780    7.3040   16.7100 C   0  0  0  0  0  2  0  0  0  0  0  0
   24.3170    7.4490   17.8090 C   0  0  0  0  0  3  0  0  0  0  0  0
   24.9800    7.8290   19.0200 O   0  0  0  0  0  0  0  0  0  0  0  0
   25.9030    8.0260   18.7860 H   0  0  0  0  0  0  0  0  0  0  0  0
   23.2390    8.4650   17.4900 C   0  0  0  0  0  0  0  0  0  0  0  0
   22.8940    9.4680   18.4090 C   0  0  0  0  0  3  0  0  0  0  0  0
   22.5760    8.4270   16.2550 C   0  0  0  0  0  3  0  0  0  0  0  0
   21.9050   10.4030   18.1050 C   0  0  0  0  0  3  0  0  0  0  0  0
   21.5860    9.3640   15.9510 C   0  0  0  0  0  3  0  0  0  0  0  0
   21.2510   10.3500   16.8760 C   0  0  0  0  0  3  0  0  0  0  0  0
   26.6660    9.3570   15.8850 C   0  0  0  0  0  2  0  0  0  0  0  0
   25.8210   10.5750   16.2910 C   0  0  0  0  0  3  0  0  0  0  0  0
   26.6730   11.6050   16.7890 O   0  0  0  0  0  0  0  0  0  0  0  0
   27.4940   11.1720   17.0800 H   0  0  0  0  0  0  0  0  0  0  0  0
   24.9060   11.0900   15.1980 C   0  0  0  0  0  0  0  0  0  0  0  0
   24.7970   10.4390   13.9600 C   0  0  0  0  0  3  0  0  0  0  0  0
   24.1260   12.2350   15.4250 C   0  0  0  0  0  3  0  0  0  0  0  0
   23.9410   10.9260   12.9700 C   0  0  0  0  0  3  0  0  0  0  0  0
   23.2710   12.7220   14.4350 C   0  0  0  0  0  3  0  0  0  0  0  0
   23.1810   12.0690   13.2080 C   0  0  0  0  0  3  0  0  0  0  0  0
  2  1  1  0
  3  2  1  0
  3  4  1  0
  5  4  1  0
  6  3  1  0
  6  7  2  0
  8  6  1  0
  9  7  1  0
 10  8  2  0
 10 11  1  0
 11  9  2  0
 12  1  1  0
 13 12  1  0
 13 14  1  0
 14 15  1  0
 16 18  1  0
 16 13  1  0
 17 16  2  0
 19 21  2  0
 19 17  1  0
 20 18  2  0
 21 20  1  0
M  RAD  8   1   3   2   3   3   2   7   2   8   2   9   2  10   2  11   2
M  RAD  7  12   3  13   2  17   2  18   2  19   2  20   2  21   2
M  END
>  <vina_score>  (4) 
-6.4109999999999996

>  <pose_id>  (4) 
4

$$$$

     RDKit          3D

 21 22  0  0  1  0  0  0  0  0999 V2000
   26.6930    8.2020   16.9320 C   0  0  0  0  0  2  0  0  0  0  0  0
   26.7110    9.3890   15.9600 C   0  0  0  0  0  2  0  0  0  0  0  0
   25.8040   10.5650   16.3480 C   0  0  0  0  0  3  0  0  0  0  0  0
   26.6320   11.6150   16.8590 O   0  0  0  0  0  0  0  0  0  0  0  0
   26.7930   11.4160   17.7980 H   0  0  0  0  0  0  0  0  0  0  0  0
   24.9700   11.0980   15.2010 C   0  0  0  0  0  0  0  0  0  0  0  0
   24.8730   10.3970   13.9890 C   0  0  0  0  0  3  0  0  0  0  0  0
   24.2680   12.3040   15.3390 C   0  0  0  0  0  3  0  0  0  0  0  0
   24.1000   10.8930   12.9390 C   0  0  0  0  0  3  0  0  0  0  0  0
   23.4930   12.8000   14.2880 C   0  0  0  0  0  3  0  0  0  0  0  0
   23.4110   12.0940   13.0880 C   0  0  0  0  0  3  0  0  0  0  0  0
   25.4700    7.2930   16.7460 C   0  0  0  0  0  2  0  0  0  0  0  0
   24.3730    7.4750   17.8060 C   0  0  0  0  0  3  0  0  0  0  0  0
   24.9680    7.7970   19.0620 O   0  0  0  0  0  0  0  0  0  0  0  0
   25.0780    8.7630   19.0810 H   0  0  0  0  0  0  0  0  0  0  0  0
   23.2990    8.4750   17.4270 C   0  0  0  0  0  0  0  0  0  0  0  0
   22.9250    9.5170   18.2890 C   0  0  0  0  0  3  0  0  0  0  0  0
   22.6690    8.3790   16.1770 C   0  0  0  0  0  3  0  0  0  0  0  0
   21.9390   10.4320   17.9160 C   0  0  0  0  0  3  0  0  0  0  0  0
   21.6820    9.2950   15.8050 C   0  0  0  0  0  3  0  0  0  0  0  0
   21.3160   10.3190   16.6750 C   0  0  0  0  0  3  0  0  0  0  0  0
  2  1  1  0
  3  2  1  0
  3  4  1  0
  4  5  1  0
  6  8  1  0
  6  3  1  0
  7  6  2  0
  9 11  2  0
  9  7  1  0
 10  8  2  0
 11 10  1  0
 12  1  1  0
 13 12  1  0
 13 14  1  0
 14 15  1  0
 16 13  1  0
 16 17  2  0
 18 16  1  0
 19 17  1  0
 20 18  2  0
 20 21  1  0
 21 19  2  0
M  RAD  8   1   3   2   3   3   2   7   2   8   2   9   2  10   2  11   2
M  RAD  7  12   3  13   2  17   2  18   2  19   2  20   2  21   2
M  END
>  <vina_score>  (5) 
-6.3540000000000001

>  <pose_id>  (5) 
5

$$$$
