
     RDKit          3D

 22 24  0  0  0  0  0  0  0  0999 V2000
   16.0650   14.5310   12.6350 C   0  0  0  0  0  2  0  0  0  0  0  0
   15.4360   15.5290   13.5090 N   0  0  0  0  0  0  0  0  0  0  0  0
   14.4490   15.6000   13.2510 H   0  0  0  0  0  0  0  0  0  0  0  0
   15.3910   15.0640   14.8280 C   0  0  0  0  0  0  0  0  0  0  0  0
   16.0270   13.4130   16.3210 C   0  0  0  0  0  0  0  0  0  0  0  0
   15.4580   14.1020   17.3880 C   0  0  0  0  0  3  0  0  0  0  0  0
   16.0110   13.8870   15.0500 N   0  0  0  0  0  0  0  0  0  0  0  0
   14.8450   15.3250   17.1390 C   0  0  0  0  0  3  0  0  0  0  0  0
   14.8150   15.8170   15.8400 C   0  0  0  0  0  3  0  0  0  0  0  0
   16.7020   12.0940   16.5530 C   0  0  0  0  0  1  0  0  0  0  0  0
   16.8220   15.2180   11.5160 C   0  0  0  0  0  0  0  0  0  0  0  0
   16.0990   15.8940   10.5160 C   0  0  0  0  0  0  0  0  0  0  0  0
   18.2480   15.1950   11.4430 C   0  0  0  0  0  0  0  0  0  0  0  0
   16.7330   16.4540    9.4160 C   0  0  0  0  0  3  0  0  0  0  0  0
   19.0860   14.6260   12.4320 C   0  0  0  0  0  3  0  0  0  0  0  0
   18.8840   15.7820   10.3160 C   0  0  0  0  0  0  0  0  0  0  0  0
   18.1180   16.3910    9.3140 C   0  0  0  0  0  3  0  0  0  0  0  0
   20.4770   14.6170   12.3070 C   0  0  0  0  0  3  0  0  0  0  0  0
   20.2840   15.7600   10.2020 C   0  0  0  0  0  3  0  0  0  0  0  0
   21.0760   15.1780   11.1890 C   0  0  0  0  0  3  0  0  0  0  0  0
   14.7400   16.0450   10.5630 O   0  0  0  0  0  0  0  0  0  0  0  0
   14.4010   16.1530    9.6470 H   0  0  0  0  0  0  0  0  0  0  0  0
  1  2  1  0
  2  4  1  0
  3  2  1  0
  4  7  1  0
  4  9  2  0
  5 10  1  0
  5  6  1  0
  7  5  2  0
  8  6  2  0
  9  8  1  0
 11  1  1  0
 12 21  1  0
 12 11  2  0
 13 11  1  0
 13 15  2  0
 14 12  1  0
 16 13  1  0
 17 14  2  0
 17 16  1  0
 18 15  1  0
 19 16  2  0
 19 20  1  0
 20 18  2  0
 22 21  1  0
M  RAD  8   1   3   6   2   8   2   9   2  10   2  14   2  15   2  17   2
M  RAD  3  18   2  19   2  20   2
M  END
>  <vina_score>  (1) 
-7.5510000000000002

>  <pose_id>  (1) 
1

$$$$

     RDKit          3D

 22 24  0  0  0  0  0  0  0  0999 V2000
   17.6150   14.3130   13.5290 C   0  0  0  0  0  2  0  0  0  0  0  0
   16.7890   13.0990   13.5220 N   0  0  0  0  0  0  0  0  0  0  0  0
   16.2830   13.0640   12.6350 H   0  0  0  0  0  0  0  0  0  0  0  0
   17.6000   11.9590   13.4750 C   0  0  0  0  0  0  0  0  0  0  0  0
   17.7130    9.6790   13.0900 C   0  0  0  0  0  0  0  0  0  0  0  0
   19.0950    9.6790   13.2540 C   0  0  0  0  0  3  0  0  0  0  0  0
   16.9640   10.8060   13.1850 N   0  0  0  0  0  0  0  0  0  0  0  0
   19.7320   10.8830   13.5280 C   0  0  0  0  0  3  0  0  0  0  0  0
   18.9740   12.0430   13.6360 C   0  0  0  0  0  3  0  0  0  0  0  0
   16.9920    8.3990   12.7870 C   0  0  0  0  0  1  0  0  0  0  0  0
   17.5320   15.0110   12.1860 C   0  0  0  0  0  0  0  0  0  0  0  0
   16.2700   15.3880   11.6890 C   0  0  0  0  0  0  0  0  0  0  0  0
   18.6950   15.2930   11.4080 C   0  0  0  0  0  0  0  0  0  0  0  0
   16.1250   15.9390   10.4240 C   0  0  0  0  0  3  0  0  0  0  0  0
   20.0200   15.0440   11.8390 C   0  0  0  0  0  3  0  0  0  0  0  0
   18.5310   15.8680   10.1180 C   0  0  0  0  0  0  0  0  0  0  0  0
   17.2500   16.1700    9.6400 C   0  0  0  0  0  3  0  0  0  0  0  0
   21.1250   15.3260   11.0330 C   0  0  0  0  0  3  0  0  0  0  0  0
   19.6520   16.1400    9.3170 C   0  0  0  0  0  3  0  0  0  0  0  0
   20.9410   15.8680    9.7690 C   0  0  0  0  0  3  0  0  0  0  0  0
   15.1190   15.2420   12.4130 O   0  0  0  0  0  0  0  0  0  0  0  0
   14.7920   14.3210   12.3070 H   0  0  0  0  0  0  0  0  0  0  0  0
  2  1  1  0
  3  2  1  0
  4  2  1  0
  4  9  2  0
  5  7  2  0
  5  6  1  0
  6  8  2  0
  7  4  1  0
  8  9  1  0
 10  5  1  0
 11  1  1  0
 12 11  2  0
 12 21  1  0
 13 15  2  0
 13 11  1  0
 14 12  1  0
 16 13  1  0
 17 16  1  0
 17 14  2  0
 18 15  1  0
 19 20  1  0
 19 16  2  0
 20 18  2  0
 22 21  1  0
M  RAD  8   1   3   6   2   8   2   9   2  10   2  14   2  15   2  17   2
M  RAD  3  18   2  19   2  20   2
M  END
>  <vina_score>  (2) 
-7.327

>  <pose_id>  (2) 
2

$$$$

     RDKit          3D

 22 24  0  0  0  0  0  0  0  0999 V2000
   20.1670   14.5550   12.8920 C   0  0  0  0  0  2  0  0  0  0  0  0
   20.4490   13.1280   12.6960 N   0  0  0  0  0  0  0  0  0  0  0  0
   20.3400   12.9160   11.7020 H   0  0  0  0  0  0  0  0  0  0  0  0
   21.8030   12.8620   12.9340 C   0  0  0  0  0  0  0  0  0  0  0  0
   23.9360   12.7290   12.0450 C   0  0  0  0  0  0  0  0  0  0  0  0
   24.4840   12.4610   13.2960 C   0  0  0  0  0  3  0  0  0  0  0  0
   22.6090   12.9420   11.8570 N   0  0  0  0  0  0  0  0  0  0  0  0
   23.6370   12.4070   14.3960 C   0  0  0  0  0  3  0  0  0  0  0  0
   22.2750   12.6150   14.2150 C   0  0  0  0  0  3  0  0  0  0  0  0
   24.8210   12.8020   10.8370 C   0  0  0  0  0  1  0  0  0  0  0  0
   19.5780   15.1510   11.6280 C   0  0  0  0  0  0  0  0  0  0  0  0
   20.4460   15.5870   10.6100 C   0  0  0  0  0  0  0  0  0  0  0  0
   18.1690   15.2870   11.4420 C   0  0  0  0  0  0  0  0  0  0  0  0
   19.9680   16.2300    9.4770 C   0  0  0  0  0  3  0  0  0  0  0  0
   17.1970   14.8060   12.3510 C   0  0  0  0  0  3  0  0  0  0  0  0
   17.6940   15.9380   10.2710 C   0  0  0  0  0  0  0  0  0  0  0  0
   18.6000   16.4110    9.3130 C   0  0  0  0  0  3  0  0  0  0  0  0
   15.8280   14.9770   12.1300 C   0  0  0  0  0  3  0  0  0  0  0  0
   16.3150   16.1070   10.0650 C   0  0  0  0  0  3  0  0  0  0  0  0
   15.3870   15.6330   10.9900 C   0  0  0  0  0  3  0  0  0  0  0  0
   21.8010   15.4050   10.6670 O   0  0  0  0  0  0  0  0  0  0  0  0
   22.2050   15.7710    9.8500 H   0  0  0  0  0  0  0  0  0  0  0  0
  2  1  1  0
  2  4  1  0
  3  2  1  0
  4  9  2  0
  5  6  1  0
  6  8  2  0
  7  5  2  0
  7  4  1  0
  9  8  1  0
 10  5  1  0
 11  1  1  0
 12 21  1  0
 12 11  2  0
 13 11  1  0
 13 15  2  0
 14 12  1  0
 16 13  1  0
 17 14  2  0
 17 16  1  0
 18 15  1  0
 19 16  2  0
 19 20  1  0
 20 18  2  0
 22 21  1  0
M  RAD  8   1   3   6   2   8   2   9   2  10   2  14   2  15   2  17   2
M  RAD  3  18   2  19   2  20   2
M  END
>  <vina_score>  (3) 
-7.2720000000000002

>  <pose_id>  (3) 
3

$$$$

     RDKit          3D

 22 24  0  0  0  0  0  0  0  0999 V2000
   19.8610   14.2590   12.6980 C   0  0  0  0  0  2  0  0  0  0  0  0
   19.4650   15.3890   13.5470 N   0  0  0  0  0  0  0  0  0  0  0  0
   19.5290   16.2430   12.9890 H   0  0  0  0  0  0  0  0  0  0  0  0
   18.1020   15.3110   13.8580 C   0  0  0  0  0  0  0  0  0  0  0  0
   15.9790   14.7430   13.1300 C   0  0  0  0  0  0  0  0  0  0  0  0
   15.4330   15.0200   14.3800 C   0  0  0  0  0  3  0  0  0  0  0  0
   17.3030   14.8720   12.8650 N   0  0  0  0  0  0  0  0  0  0  0  0
   16.2790   15.4470   15.3960 C   0  0  0  0  0  3  0  0  0  0  0  0
   17.6360   15.5910   15.1340 C   0  0  0  0  0  3  0  0  0  0  0  0
   15.0970   14.2730   12.0120 C   0  0  0  0  0  1  0  0  0  0  0  0
   20.8570   14.7140   11.6500 C   0  0  0  0  0  0  0  0  0  0  0  0
   20.5190   15.7920   10.8100 C   0  0  0  0  0  0  0  0  0  0  0  0
   22.1250   14.0800   11.4860 C   0  0  0  0  0  0  0  0  0  0  0  0
   21.3480   16.1870    9.7700 C   0  0  0  0  0  3  0  0  0  0  0  0
   22.6130   13.0490   12.3240 C   0  0  0  0  0  3  0  0  0  0  0  0
   22.9680   14.5020   10.4230 C   0  0  0  0  0  0  0  0  0  0  0  0
   22.5630   15.5400    9.5730 C   0  0  0  0  0  3  0  0  0  0  0  0
   23.8570   12.4500   12.1130 C   0  0  0  0  0  3  0  0  0  0  0  0
   24.2140   13.8870   10.2200 C   0  0  0  0  0  3  0  0  0  0  0  0
   24.6550   12.8650   11.0570 C   0  0  0  0  0  3  0  0  0  0  0  0
   19.3680   16.5150   10.9640 O   0  0  0  0  0  0  0  0  0  0  0  0
   19.3800   16.9460   11.8470 H   0  0  0  0  0  0  0  0  0  0  0  0
  1  2  1  0
  2  4  1  0
  3  2  1  0
  4  9  2  0
  5  6  1  0
  6  8  2  0
  7  5  2  0
  7  4  1  0
  9  8  1  0
 10  5  1  0
 11  1  1  0
 12 21  1  0
 12 11  2  0
 13 11  1  0
 13 15  2  0
 14 12  1  0
 16 13  1  0
 17 14  2  0
 17 16  1  0
 18 15  1  0
 19 16  2  0
 19 20  1  0
 20 18  2  0
 21 22  1  0
M  RAD  8   1   3   6   2   8   2   9   2  10   2  14   2  15   2  17   2
M  RAD  3  18   2  19   2  20   2
M  END
>  <vina_score>  (4) 
-6.9320000000000004

>  <pose_id>  (4) 
4

$$$$

     RDKit          3D

 22 24  0  0  0  0  0  0  0  0999 V2000
   21.3460   14.6440   14.1660 C   0  0  0  0  0  2  0  0  0  0  0  0
   20.3030   13.7260   14.6400 N   0  0  0  0  0  0  0  0  0  0  0  0
   20.2840   13.7670   15.6610 H   0  0  0  0  0  0  0  0  0  0  0  0
   19.0360   14.1980   14.2770 C   0  0  0  0  0  0  0  0  0  0  0  0
   17.6840   15.0050   12.5810 C   0  0  0  0  0  0  0  0  0  0  0  0
   16.5780   15.0420   13.4250 C   0  0  0  0  0  3  0  0  0  0  0  0
   18.9040   14.5760   12.9900 N   0  0  0  0  0  0  0  0  0  0  0  0
   16.7320   14.6250   14.7410 C   0  0  0  0  0  3  0  0  0  0  0  0
   17.9790   14.1910   15.1750 C   0  0  0  0  0  3  0  0  0  0  0  0
   17.5530   15.4410   11.1510 C   0  0  0  0  0  1  0  0  0  0  0  0
   22.3830   13.8870   13.3590 C   0  0  0  0  0  0  0  0  0  0  0  0
   23.0810   12.8270   13.9670 C   0  0  0  0  0  0  0  0  0  0  0  0
   22.6760   14.2200   12.0030 C   0  0  0  0  0  0  0  0  0  0  0  0
   24.1090   12.1650   13.3110 C   0  0  0  0  0  3  0  0  0  0  0  0
   21.9810   15.2030   11.2570 C   0  0  0  0  0  3  0  0  0  0  0  0
   23.7240   13.5260   11.3390 C   0  0  0  0  0  0  0  0  0  0  0  0
   24.4330   12.5190   12.0060 C   0  0  0  0  0  3  0  0  0  0  0  0
   22.3160   15.5020    9.9340 C   0  0  0  0  0  3  0  0  0  0  0  0
   24.0530   13.8420   10.0110 C   0  0  0  0  0  3  0  0  0  0  0  0
   23.3560   14.8260    9.3130 C   0  0  0  0  0  3  0  0  0  0  0  0
   22.7930   12.3820   15.2290 O   0  0  0  0  0  0  0  0  0  0  0  0
   22.0160   11.7830   15.1840 H   0  0  0  0  0  0  0  0  0  0  0  0
  1  2  1  0
  2  3  1  0
  4  2  1  0
  4  9  2  0
  5  7  2  0
  5  6  1  0
  6  8  2  0
  7  4  1  0
  8  9  1  0
 10  5  1  0
 11 12  2  0
 11  1  1  0
 12 21  1  0
 13 11  1  0
 14 12  1  0
 15 13  2  0
 16 13  1  0
 16 17  1  0
 17 14  2  0
 18 15  1  0
 19 16  2  0
 20 18  2  0
 20 19  1  0
 22 21  1  0
M  RAD  8   1   3   6   2   8   2   9   2  10   2  14   2  15   2  17   2
M  RAD  3  18   2  19   2  20   2
M  END
>  <vina_score>  (5) 
-6.7359999999999998

>  <pose_id>  (5) 
5

$$$$
