
     RDKit          3D

 44 46  0  0  1  0  0  0  0  0999 V2000
   19.7580   11.2370   18.1640 C   0  0  0  0  0  3  0  0  0  0  0  0
   19.6470   11.8820   19.5610 C   0  0  0  0  0  2  0  0  0  0  0  0
   19.2110   10.9270   20.6960 C   0  0  0  0  0  3  0  0  0  0  0  0
   18.1550   11.6300   21.5640 C   0  0  0  0  0  1  0  0  0  0  0  0
   20.3960   10.4870   21.5540 C   0  0  0  0  0  1  0  0  0  0  0  0
   21.1710   10.9180   17.8740 N   0  0  0  0  0  0  0  0  0  0  0  0
   21.5820   11.3670   17.0600 H   0  0  0  0  0  0  0  0  0  0  0  0
   21.7020    9.2890   17.8660 P   0  0  1  0  0  0  0  0  0  0  0  0
   23.0080    9.2490   18.6080 O   0  0  0  0  0  1  0  0  0  0  0  0
   20.4870    8.5490   18.3360 O   0  0  0  0  0  0  0  0  0  0  0  0
   21.9680    9.0100   16.3050 O   0  0  0  0  0  0  0  0  0  0  0  0
   22.9500    9.8000   15.6590 C   0  0  0  0  0  3  0  0  0  0  0  0
   22.2830   10.9690   15.1320 O   0  0  0  0  0  0  0  0  0  0  0  0
   23.5940    8.9560   14.5310 C   0  0  0  0  0  3  0  0  0  0  0  0
   23.0300   11.7190   14.1740 C   0  0  0  0  0  3  0  0  0  0  0  0
   23.0520    9.3930   13.1760 C   0  0  0  0  0  3  0  0  0  0  0  0
   23.4200   10.8670   12.9490 C   0  0  0  0  0  3  0  0  0  0  0  0
   24.2220   12.4130   14.8220 C   0  0  0  0  0  1  0  0  0  0  0  0
   25.0400    9.1040   14.4960 O   0  0  0  0  0  0  0  0  0  0  0  0
   25.1930    9.6220   13.6820 H   0  0  0  0  0  0  0  0  0  0  0  0
   23.6310    8.6150   12.1080 O   0  0  0  0  0  0  0  0  0  0  0  0
   22.8670    8.1550   11.7150 H   0  0  0  0  0  0  0  0  0  0  0  0
   22.7350   11.3020   11.7560 O   0  0  0  0  0  0  0  0  0  0  0  0
   21.8290   11.5390   12.0200 H   0  0  0  0  0  0  0  0  0  0  0  0
   19.1110   12.0300   17.0000 C   0  0  0  0  0  0  0  0  0  0  0  0
   18.2910   12.9370   17.1870 O   0  0  0  0  0  0  0  0  0  0  0  0
   19.4540   11.6030   15.7390 N   0  0  0  0  0  0  0  0  0  0  0  0
   19.4980   10.5610   15.7350 H   0  0  0  0  0  0  0  0  0  0  0  0
   18.8130   12.1220   14.5350 C   0  0  0  0  0  3  0  0  0  0  0  0
   19.3750   13.4350   13.9560 C   0  0  0  0  0  2  0  0  0  0  0  0
   18.4860   14.1960   13.0090 C   0  0  0  0  0  0  0  0  0  0  0  0
   17.1080   14.2560   13.0700 C   0  0  0  0  0  3  0  0  0  0  0  0
   18.8730   14.9020   11.8210 C   0  0  0  0  0  0  0  0  0  0  0  0
   16.6490   14.9790   12.0090 N   0  0  0  0  0  0  0  0  0  0  0  0
   20.1060   15.1570   11.1850 C   0  0  0  0  0  3  0  0  0  0  0  0
   17.7020   15.3670   11.2120 C   0  0  0  0  0  0  0  0  0  0  0  0
   20.1240   15.8460    9.9670 C   0  0  0  0  0  3  0  0  0  0  0  0
   17.7050   16.0650    9.9990 C   0  0  0  0  0  3  0  0  0  0  0  0
   18.9370   16.2870    9.3810 C   0  0  0  0  0  3  0  0  0  0  0  0
   15.6780   15.1730   11.8190 H   0  0  0  0  0  0  0  0  0  0  0  0
   18.7600   11.0580   13.4330 C   0  0  0  0  0  0  0  0  0  0  0  0
   17.7420   10.6230   12.9050 O   0  0  0  0  0  0  0  0  0  0  0  0
   19.9570   10.5640   13.0550 O   0  0  0  0  0  0  0  0  0  0  0  0
   19.8100    9.6070   12.9390 H   0  0  0  0  0  0  0  0  0  0  0  0
  1  2  1  1
  2  3  1  0
  3  5  1  0
  3  4  1  0
  1  6  1  0
  7  6  1  0
  8  6  1  0
  8 10  2  0
  8  9  1  0
 11  8  1  0
 12 11  1  0
 12 13  1  0
 14 19  1  0
 14 12  1  0
 15 18  1  0
 15 13  1  0
 16 21  1  0
 16 14  1  6
 17 23  1  0
 17 16  1  1
 17 15  1  0
 20 19  1  0
 22 21  1  0
 23 24  1  0
 25 26  2  0
 25  1  1  0
 27 25  1  1
 27 28  1  0
 29 30  1  0
 29 27  1  1
 31 32  2  0
 31 30  1  0
 33 31  1  0
 34 32  1  0
 35 33  2  0
 36 33  1  0
 36 34  1  0
 37 35  1  0
 38 36  2  0
 39 37  2  0
 39 38  1  0
 40 34  1  0
 29 41  1  0
 42 41  2  0
 41 43  1  0
 44 43  1  0
M  END
>  <vina_score>  (1) 
-7.9029999999999996

>  <pose_id>  (1) 
1

$$$$

     RDKit          3D

 44 46  0  0  1  0  0  0  0  0999 V2000
   18.3390   12.9930   13.9790 C   0  0  0  0  0  3  0  0  0  0  0  0
   17.9070   14.1440   13.0480 C   0  0  0  0  0  2  0  0  0  0  0  0
   16.3820   14.2800   12.8290 C   0  0  0  0  0  3  0  0  0  0  0  0
   15.8420   15.3920   13.7420 C   0  0  0  0  0  1  0  0  0  0  0  0
   15.6510   12.9660   13.1020 C   0  0  0  0  0  1  0  0  0  0  0  0
   18.3570   13.4650   15.3790 N   0  0  0  0  0  0  0  0  0  0  0  0
   19.2710   13.6160   15.7980 H   0  0  0  0  0  0  0  0  0  0  0  0
   17.3890   12.6910   16.5620 P   0  0  1  0  0  0  0  0  0  0  0  0
   16.1930   13.5700   16.7940 O   0  0  0  0  0  1  0  0  0  0  0  0
   17.2710   11.2980   16.0240 O   0  0  0  0  0  0  0  0  0  0  0  0
   18.3310   12.7190   17.8650 O   0  0  0  0  0  0  0  0  0  0  0  0
   18.5170   11.5010   18.5620 C   0  0  0  0  0  3  0  0  0  0  0  0
   17.6280   11.5170   19.7010 O   0  0  0  0  0  0  0  0  0  0  0  0
   20.0000   11.4080   19.0000 C   0  0  0  0  0  3  0  0  0  0  0  0
   17.8970   10.5350   20.7010 C   0  0  0  0  0  3  0  0  0  0  0  0
   20.1260   11.7140   20.4870 C   0  0  0  0  0  3  0  0  0  0  0  0
   19.3220   10.6690   21.2760 C   0  0  0  0  0  3  0  0  0  0  0  0
   17.5880    9.1310   20.1940 C   0  0  0  0  0  1  0  0  0  0  0  0
   20.5540   10.0840   18.7730 O   0  0  0  0  0  0  0  0  0  0  0  0
   20.1350    9.8040   17.9370 H   0  0  0  0  0  0  0  0  0  0  0  0
   21.5010   11.6420   20.9180 O   0  0  0  0  0  0  0  0  0  0  0  0
   21.8750   10.9200   20.3790 H   0  0  0  0  0  0  0  0  0  0  0  0
   19.3030   11.0930   22.6550 O   0  0  0  0  0  0  0  0  0  0  0  0
   20.0800   11.6640   22.7850 H   0  0  0  0  0  0  0  0  0  0  0  0
   19.6670   12.2860   13.6080 C   0  0  0  0  0  0  0  0  0  0  0  0
   19.7530   11.4740   12.6780 O   0  0  0  0  0  0  0  0  0  0  0  0
   20.7310   12.5650   14.4340 N   0  0  0  0  0  0  0  0  0  0  0  0
   20.3910   12.6100   15.4190 H   0  0  0  0  0  0  0  0  0  0  0  0
   22.0060   11.8620   14.3350 C   0  0  0  0  0  3  0  0  0  0  0  0
   23.2450   12.7110   13.9930 C   0  0  0  0  0  2  0  0  0  0  0  0
   23.5760   12.8750   12.5330 C   0  0  0  0  0  0  0  0  0  0  0  0
   24.4900   12.1210   11.8250 C   0  0  0  0  0  3  0  0  0  0  0  0
   23.1020   13.8900   11.6360 C   0  0  0  0  0  0  0  0  0  0  0  0
   24.5710   12.6040   10.5530 N   0  0  0  0  0  0  0  0  0  0  0  0
   22.2100   14.9760   11.7610 C   0  0  0  0  0  3  0  0  0  0  0  0
   23.7530   13.7010   10.4120 C   0  0  0  0  0  0  0  0  0  0  0  0
   22.0140   15.8350   10.6730 C   0  0  0  0  0  3  0  0  0  0  0  0
   23.5600   14.5470    9.3140 C   0  0  0  0  0  3  0  0  0  0  0  0
   22.6870   15.6250    9.4700 C   0  0  0  0  0  3  0  0  0  0  0  0
   25.1670   12.2300    9.8300 H   0  0  0  0  0  0  0  0  0  0  0  0
   22.2830   11.0360   15.5960 C   0  0  0  0  0  0  0  0  0  0  0  0
   21.5990   10.1050   16.0080 O   0  0  0  0  0  0  0  0  0  0  0  0
   23.3710   11.4130   16.3000 O   0  0  0  0  0  0  0  0  0  0  0  0
   23.5590   10.6620   16.8930 H   0  0  0  0  0  0  0  0  0  0  0  0
  1  2  1  0
  1  6  1  0
  3  2  1  0
  3  5  1  0
  3  4  1  0
  6  7  1  0
  6  8  1  0
  8 10  2  0
  8  9  1  0
  8 11  1  0
 12 11  1  0
 14 12  1  0
 12 13  1  1
 15 13  1  0
 14 19  1  0
 14 16  1  0
 15 18  1  0
 15 17  1  0
 16 21  1  0
 17 16  1  1
 17 23  1  0
 20 19  1  0
 22 21  1  0
 23 24  1  0
 25  1  1  0
 27 25  1  1
 26 25  2  0
 27 28  1  0
 29 30  1  0
 29 27  1  1
 29 41  1  0
 31 30  1  0
 32 31  2  0
 33 35  1  0
 33 31  1  0
 34 32  1  0
 36 34  1  0
 36 33  2  0
 37 35  2  0
 38 39  2  0
 38 36  1  0
 39 37  1  0
 40 34  1  0
 41 42  2  0
 41 43  1  0
 43 44  1  0
M  END
>  <vina_score>  (2) 
-7.6600000000000001

>  <pose_id>  (2) 
2

$$$$

     RDKit          3D

 44 46  0  0  1  0  0  0  0  0999 V2000
   18.5560   11.6950   15.7500 C   0  0  0  0  0  3  0  0  0  0  0  0
   17.0380   11.9150   15.5860 C   0  0  0  0  0  2  0  0  0  0  0  0
   16.6230   13.3270   15.1110 C   0  0  0  0  0  3  0  0  0  0  0  0
   16.2110   14.1650   16.3310 C   0  0  0  0  0  1  0  0  0  0  0  0
   15.4840   13.2700   14.0940 C   0  0  0  0  0  1  0  0  0  0  0  0
   18.9930   10.5790   14.8860 N   0  0  0  0  0  0  0  0  0  0  0  0
   19.7340    9.9850   15.2480 H   0  0  0  0  0  0  0  0  0  0  0  0
   19.3410   10.8550   13.2310 P   0  0  1  0  0  0  0  0  0  0  0  0
   18.3490   10.0560   12.4350 O   0  0  0  0  0  0  0  0  0  0  0  0
   19.4110   12.3500   13.1600 O   0  0  0  0  0  1  0  0  0  0  0  0
   20.8040   10.2090   13.0630 O   0  0  0  0  0  0  0  0  0  0  0  0
   21.9170   11.0150   13.4050 C   0  0  0  0  0  3  0  0  0  0  0  0
   22.9460   10.7670   12.4220 O   0  0  0  0  0  0  0  0  0  0  0  0
   22.3850   10.6250   14.8290 C   0  0  0  0  0  3  0  0  0  0  0  0
   24.2500   11.2300   12.7710 C   0  0  0  0  0  3  0  0  0  0  0  0
   23.6460    9.7730   14.7500 C   0  0  0  0  0  3  0  0  0  0  0  0
   24.7570   10.5970   14.0820 C   0  0  0  0  0  3  0  0  0  0  0  0
   24.3110   12.7540   12.7820 C   0  0  0  0  0  1  0  0  0  0  0  0
   22.6920   11.7910   15.6420 O   0  0  0  0  0  0  0  0  0  0  0  0
   23.4640   12.1830   15.1900 H   0  0  0  0  0  0  0  0  0  0  0  0
   24.0980    9.3900   16.0650 O   0  0  0  0  0  0  0  0  0  0  0  0
   23.4170    9.7540   16.6590 H   0  0  0  0  0  0  0  0  0  0  0  0
   25.8700    9.7080   13.8490 O   0  0  0  0  0  0  0  0  0  0  0  0
   26.6720   10.2580   13.8310 H   0  0  0  0  0  0  0  0  0  0  0  0
   19.0600   11.5110   17.2040 C   0  0  0  0  0  0  0  0  0  0  0  0
   18.9280   12.3840   18.0710 O   0  0  0  0  0  0  0  0  0  0  0  0
   19.7340   10.3370   17.4460 N   0  0  0  0  0  0  0  0  0  0  0  0
   20.3400   10.1200   16.6240 H   0  0  0  0  0  0  0  0  0  0  0  0
   20.4210   10.0730   18.7070 C   0  0  0  0  0  3  0  0  0  0  0  0
   19.8390    8.9570   19.5960 C   0  0  0  0  0  2  0  0  0  0  0  0
   18.4930    9.2160   20.2190 C   0  0  0  0  0  0  0  0  0  0  0  0
   17.2850    8.7290   19.7590 C   0  0  0  0  0  3  0  0  0  0  0  0
   18.1900   10.0850   21.3200 C   0  0  0  0  0  0  0  0  0  0  0  0
   16.2820    9.2310   20.5350 N   0  0  0  0  0  0  0  0  0  0  0  0
   18.9640   10.9040   22.1700 C   0  0  0  0  0  3  0  0  0  0  0  0
   16.8000   10.0830   21.4830 C   0  0  0  0  0  0  0  0  0  0  0  0
   18.3260   11.6960   23.1320 C   0  0  0  0  0  3  0  0  0  0  0  0
   16.1500   10.8620   22.4460 C   0  0  0  0  0  3  0  0  0  0  0  0
   16.9370   11.6780   23.2610 C   0  0  0  0  0  3  0  0  0  0  0  0
   15.3020    9.0310   20.4110 H   0  0  0  0  0  0  0  0  0  0  0  0
   21.9160    9.8230   18.4830 C   0  0  0  0  0  0  0  0  0  0  0  0
   22.7790   10.6860   18.3780 O   0  0  0  0  0  0  0  0  0  0  0  0
   22.2690    8.5250   18.3720 O   0  0  0  0  0  0  0  0  0  0  0  0
   21.5160    8.0270   18.7380 H   0  0  0  0  0  0  0  0  0  0  0  0
  1  2  1  0
  1 25  1  0
  3  2  1  0
  3  4  1  0
  5  3  1  0
  6  7  1  0
  1  6  1  0
  8  9  2  0
  8  6  1  0
 10  8  1  0
 11  8  1  0
 12 11  1  0
 14 12  1  0
 15 13  1  0
 12 13  1  6
 14 19  1  0
 15 18  1  0
 15 17  1  0
 14 16  1  0
 16 21  1  0
 17 23  1  0
 16 17  1  1
 20 19  1  0
 21 22  1  0
 24 23  1  0
 27 25  1  1
 25 26  2  0
 29 27  1  0
 28 27  1  0
 29 30  1  1
 30 31  1  0
 31 33  1  0
 32 31  2  0
 32 34  1  0
 33 36  2  0
 33 35  1  0
 34 36  1  0
 35 37  2  0
 36 38  1  0
 37 39  1  0
 38 39  2  0
 40 34  1  0
 41 29  1  0
 42 41  2  0
 41 43  1  0
 43 44  1  0
M  END
>  <vina_score>  (3) 
-7.6219999999999999

>  <pose_id>  (3) 
3

$$$$

     RDKit          3D

 44 46  0  0  1  0  0  0  0  0999 V2000
   21.4020   11.9230   14.4740 C   0  0  0  0  0  3  0  0  0  0  0  0
   22.7630   11.4580   15.0310 C   0  0  0  0  0  2  0  0  0  0  0  0
   24.0020   12.1340   14.3970 C   0  0  0  0  0  3  0  0  0  0  0  0
   24.3940   11.3670   13.1250 C   0  0  0  0  0  1  0  0  0  0  0  0
   25.1780   12.1880   15.3710 C   0  0  0  0  0  1  0  0  0  0  0  0
   21.2810   13.3890   14.6160 N   0  0  0  0  0  0  0  0  0  0  0  0
   20.8110   13.7290   15.4510 H   0  0  0  0  0  0  0  0  0  0  0  0
   20.7180   14.3380   13.3060 P   0  0  1  0  0  0  0  0  0  0  0  0
   21.8150   15.3030   12.9600 O   0  0  0  0  0  1  0  0  0  0  0  0
   20.2260   13.3010   12.3430 O   0  0  0  0  0  0  0  0  0  0  0  0
   19.4850   15.1410   13.9540 O   0  0  0  0  0  0  0  0  0  0  0  0
   18.1780   14.7250   13.6050 C   0  0  0  0  0  3  0  0  0  0  0  0
   17.4270   15.9090   13.2560 O   0  0  0  0  0  0  0  0  0  0  0  0
   17.5550   13.9940   14.8210 C   0  0  0  0  0  3  0  0  0  0  0  0
   16.0110   15.7390   13.1920 C   0  0  0  0  0  3  0  0  0  0  0  0
   16.5520   14.9040   15.5190 C   0  0  0  0  0  3  0  0  0  0  0  0
   15.4270   15.2480   14.5310 C   0  0  0  0  0  3  0  0  0  0  0  0
   15.6130   14.8630   12.0090 C   0  0  0  0  0  1  0  0  0  0  0  0
   16.8540   12.7830   14.4290 O   0  0  0  0  0  0  0  0  0  0  0  0
   17.0000   12.1840   15.1870 H   0  0  0  0  0  0  0  0  0  0  0  0
   15.9630   14.2480   16.6610 O   0  0  0  0  0  0  0  0  0  0  0  0
   15.0080   14.2550   16.4650 H   0  0  0  0  0  0  0  0  0  0  0  0
   14.6010   16.2540   15.1540 O   0  0  0  0  0  0  0  0  0  0  0  0
   14.9980   17.1160   14.9430 H   0  0  0  0  0  0  0  0  0  0  0  0
   20.1560   11.1990   15.0440 C   0  0  0  0  0  0  0  0  0  0  0  0
   19.2000   10.8600   14.3360 O   0  0  0  0  0  0  0  0  0  0  0  0
   20.1510   11.0260   16.4080 N   0  0  0  0  0  0  0  0  0  0  0  0
   20.5410   11.8830   16.8590 H   0  0  0  0  0  0  0  0  0  0  0  0
   18.9890   10.5180   17.1300 C   0  0  0  0  0  3  0  0  0  0  0  0
   19.2660    9.6750   18.3900 C   0  0  0  0  0  2  0  0  0  0  0  0
   19.4410   10.4230   19.6850 C   0  0  0  0  0  0  0  0  0  0  0  0
   20.6260   10.9570   20.1520 C   0  0  0  0  0  3  0  0  0  0  0  0
   18.4650   10.6290   20.7170 C   0  0  0  0  0  0  0  0  0  0  0  0
   20.4110   11.4960   21.3860 N   0  0  0  0  0  0  0  0  0  0  0  0
   17.1070   10.2820   20.8700 C   0  0  0  0  0  3  0  0  0  0  0  0
   19.1060   11.2900   21.7710 C   0  0  0  0  0  0  0  0  0  0  0  0
   16.4470   10.5910   22.0660 C   0  0  0  0  0  3  0  0  0  0  0  0
   18.4570   11.6120   22.9680 C   0  0  0  0  0  3  0  0  0  0  0  0
   17.1180   11.2410   23.1010 C   0  0  0  0  0  3  0  0  0  0  0  0
   21.1150   11.9510   21.9470 H   0  0  0  0  0  0  0  0  0  0  0  0
   18.0120   11.6480   17.4740 C   0  0  0  0  0  0  0  0  0  0  0  0
   18.3180   12.7520   17.9110 O   0  0  0  0  0  0  0  0  0  0  0  0
   16.7080   11.3540   17.2890 O   0  0  0  0  0  0  0  0  0  0  0  0
   16.6150   10.4290   17.5830 H   0  0  0  0  0  0  0  0  0  0  0  0
  1  6  1  0
  1  2  1  1
  1 25  1  0
  3  2  1  0
  3  5  1  0
  4  3  1  0
  6  7  1  0
  8 10  2  0
  8 11  1  0
  8  6  1  0
  9  8  1  0
 12 11  1  0
 12 14  1  0
 12 13  1  0
 14 19  1  0
 16 14  1  1
 15 18  1  0
 15 13  1  1
 17 15  1  0
 16 21  1  0
 17 23  1  0
 17 16  1  0
 19 20  1  0
 22 21  1  0
 24 23  1  0
 27 25  1  0
 26 25  2  0
 27 28  1  1
 29 27  1  0
 29 41  1  0
 29 30  1  1
 30 31  1  0
 31 32  2  0
 31 33  1  0
 32 34  1  0
 33 35  2  0
 33 36  1  0
 34 36  1  0
 34 40  1  0
 35 37  1  0
 36 38  2  0
 37 39  2  0
 38 39  1  0
 41 42  2  0
 41 43  1  0
 43 44  1  0
M  END
>  <vina_score>  (4) 
-7.4980000000000002

>  <pose_id>  (4) 
4

$$$$

     RDKit          3D

 44 46  0  0  1  0  0  0  0  0999 V2000
   19.0280   12.8480   15.0730 C   0  0  0  0  0  3  0  0  0  0  0  0
   19.4250   14.2610   14.5990 C   0  0  0  0  0  2  0  0  0  0  0  0
   18.7340   14.7410   13.3020 C   0  0  0  0  0  3  0  0  0  0  0  0
   17.4510   13.9220   13.0850 C   0  0  0  0  0  1  0  0  0  0  0  0
   19.6550   14.6180   12.0900 C   0  0  0  0  0  1  0  0  0  0  0  0
   18.4620   12.9200   16.4360 N   0  0  0  0  0  0  0  0  0  0  0  0
   19.1250   12.9020   17.2060 H   0  0  0  0  0  0  0  0  0  0  0  0
   17.1540   11.9080   16.8810 P   0  0  1  0  0  0  0  0  0  0  0  0
   16.2960   12.6930   17.8320 O   0  0  0  0  0  1  0  0  0  0  0  0
   16.6500   11.4270   15.5540 O   0  0  0  0  0  0  0  0  0  0  0  0
   17.8820   10.7170   17.6780 O   0  0  0  0  0  0  0  0  0  0  0  0
   17.8370   10.7550   19.0930 C   0  0  0  0  0  3  0  0  0  0  0  0
   18.9610   11.5460   19.5380 O   0  0  0  0  0  0  0  0  0  0  0  0
   17.9160    9.3020   19.6250 C   0  0  0  0  0  3  0  0  0  0  0  0
   19.2770   11.4330   20.9260 C   0  0  0  0  0  3  0  0  0  0  0  0
   19.3140    9.0190   20.1640 C   0  0  0  0  0  3  0  0  0  0  0  0
   19.5960    9.9790   21.3290 C   0  0  0  0  0  3  0  0  0  0  0  0
   18.1960   12.0690   21.7920 C   0  0  0  0  0  1  0  0  0  0  0  0
   16.9710    9.0620   20.7030 O   0  0  0  0  0  0  0  0  0  0  0  0
   17.5350    9.0600   21.5000 H   0  0  0  0  0  0  0  0  0  0  0  0
   19.4160    7.6680   20.6590 O   0  0  0  0  0  0  0  0  0  0  0  0
   19.6050    7.1420   19.8600 H   0  0  0  0  0  0  0  0  0  0  0  0
   20.9840    9.8180   21.6910 O   0  0  0  0  0  0  0  0  0  0  0  0
   21.0010    9.4740   22.6010 H   0  0  0  0  0  0  0  0  0  0  0  0
   20.1360   11.7690   14.9810 C   0  0  0  0  0  0  0  0  0  0  0  0
   20.2250   10.9830   14.0290 O   0  0  0  0  0  0  0  0  0  0  0  0
   20.9720   11.6920   16.0710 N   0  0  0  0  0  0  0  0  0  0  0  0
   20.4090   11.8270   16.9390 H   0  0  0  0  0  0  0  0  0  0  0  0
   21.9600   10.6300   16.2290 C   0  0  0  0  0  3  0  0  0  0  0  0
   23.4260   10.9900   15.9210 C   0  0  0  0  0  2  0  0  0  0  0  0
   23.8600   10.9040   14.4810 C   0  0  0  0  0  0  0  0  0  0  0  0
   24.5560    9.8560   13.9120 C   0  0  0  0  0  3  0  0  0  0  0  0
   23.7400   11.9130   13.4680 C   0  0  0  0  0  0  0  0  0  0  0  0
   24.8320   10.1630   12.6130 N   0  0  0  0  0  0  0  0  0  0  0  0
   23.1880   13.2110   13.4320 C   0  0  0  0  0  3  0  0  0  0  0  0
   24.3690   11.4250   12.3170 C   0  0  0  0  0  0  0  0  0  0  0  0
   23.2980   13.9740   12.2630 C   0  0  0  0  0  3  0  0  0  0  0  0
   24.4780   12.1720   11.1400 C   0  0  0  0  0  3  0  0  0  0  0  0
   23.9410   13.4610   11.1370 C   0  0  0  0  0  3  0  0  0  0  0  0
   25.3320    9.5660   11.9720 H   0  0  0  0  0  0  0  0  0  0  0  0
   21.8700    9.9910   17.6190 C   0  0  0  0  0  0  0  0  0  0  0  0
   21.9050    8.7900   17.8600 O   0  0  0  0  0  0  0  0  0  0  0  0
   21.7170   10.8600   18.6400 O   0  0  0  0  0  0  0  0  0  0  0  0
   20.9210   10.5550   19.1130 H   0  0  0  0  0  0  0  0  0  0  0  0
  1  2  1  0
  1  6  1  0
  3  2  1  0
  4  3  1  0
  5  3  1  0
  6  8  1  0
  6  7  1  0
  8 10  2  0
  8 11  1  0
  8  9  1  0
 12 11  1  0
 12 13  1  1
 14 12  1  0
 15 13  1  0
 14 16  1  0
 14 19  1  0
 15 17  1  0
 15 18  1  0
 16 21  1  0
 17 16  1  1
 17 23  1  0
 19 20  1  0
 22 21  1  0
 23 24  1  0
 25  1  1  0
 27 25  1  1
 26 25  2  0
 29 27  1  0
 27 28  1  0
 29 30  1  0
 29 41  1  0
 31 30  1  0
 32 31  2  0
 33 31  1  0
 34 32  1  0
 35 33  1  0
 36 34  1  0
 36 33  2  0
 37 35  2  0
 38 36  1  0
 39 38  2  0
 39 37  1  0
 40 34  1  0
 41 42  2  0
 41 43  1  1
 43 44  1  0
M  END
>  <vina_score>  (5) 
-7.3979999999999997

>  <pose_id>  (5) 
5

$$$$
