
     RDKit          3D

 23 25  0  0  0  0  0  0  0  0999 V2000
   18.4440   12.3600   13.9170 C   0  0  0  0  0  2  0  0  0  0  0  0
   18.2810   13.8790   14.0710 C   0  0  0  0  0  2  0  0  0  0  0  0
   17.6060   14.4930   12.8800 C   0  0  0  0  0  0  0  0  0  0  0  0
   19.9330   15.8580   10.1500 C   0  0  0  0  0  0  0  0  0  0  0  0
   18.9080   16.3090    9.3130 C   0  0  0  0  0  3  0  0  0  0  0  0
   19.6130   15.2490   11.3740 C   0  0  0  0  0  3  0  0  0  0  0  0
   17.5620   16.1450    9.6550 C   0  0  0  0  0  3  0  0  0  0  0  0
   18.2610   15.0700   11.7430 C   0  0  0  0  0  0  0  0  0  0  0  0
   17.2720   15.5200   10.8740 C   0  0  0  0  0  0  0  0  0  0  0  0
   16.0610   15.2340   11.4560 N   0  0  0  0  0  0  0  0  0  0  0  0
   16.2400   14.6090   12.6650 C   0  0  0  0  0  0  0  0  0  0  0  0
   21.3700   16.0780    9.7740 C   0  0  0  0  0  1  0  0  0  0  0  0
   15.1670   15.4570   11.0420 H   0  0  0  0  0  0  0  0  0  0  0  0
   15.0870   14.1880   13.5010 C   0  0  0  0  0  1  0  0  0  0  0  0
   19.6710   12.0420   13.1770 N   0  0  0  0  0  0  0  0  0  0  0  0
   19.5340   12.2470   12.1870 H   0  0  0  0  0  0  0  0  0  0  0  0
   20.8010   12.8320   13.6720 C   0  0  0  0  0  2  0  0  0  0  0  0
   22.0180   12.6550   12.8050 C   0  0  0  0  0  0  0  0  0  0  0  0
   22.8220   13.7360   12.4330 C   0  0  0  0  0  3  0  0  0  0  0  0
   22.3680   11.4030   12.3050 C   0  0  0  0  0  3  0  0  0  0  0  0
   23.9260   13.5310   11.6110 C   0  0  0  0  0  3  0  0  0  0  0  0
   23.4330   11.1720   11.5040 N   0  0  0  0  0  0  0  0  0  0  0  0
   24.1880   12.2420   11.1770 C   0  0  0  0  0  3  0  0  0  0  0  0
  1  2  1  0
  3  2  1  0
  4  6  1  0
  5  7  1  0
  5  4  2  0
  6  8  2  0
  7  9  2  0
  8  3  1  0
  9 10  1  0
  9  8  1  0
 10 11  1  0
 11  3  2  0
 11 14  1  0
 12  4  1  0
 13 10  1  0
 15 17  1  0
 15  1  1  0
 16 15  1  0
 18 17  1  0
 19 18  1  0
 20 18  2  0
 21 19  2  0
 22 20  1  0
 23 22  2  0
 23 21  1  0
M  END
>  <vina_score>  (1) 
-6.7880000000000003

>  <pose_id>  (1) 
1

$$$$

     RDKit          3D

 23 25  0  0  0  0  0  0  0  0999 V2000
   18.6940   13.1000   15.2480 C   0  0  0  0  0  2  0  0  0  0  0  0
   18.6970   14.5810   14.8440 C   0  0  0  0  0  2  0  0  0  0  0  0
   17.5510   14.9160   13.9350 C   0  0  0  0  0  0  0  0  0  0  0  0
   18.4780   15.7680   10.3090 C   0  0  0  0  0  0  0  0  0  0  0  0
   17.1660   16.0050    9.8870 C   0  0  0  0  0  3  0  0  0  0  0  0
   18.7250   15.4120   11.6450 C   0  0  0  0  0  3  0  0  0  0  0  0
   16.0830   15.8700   10.7630 C   0  0  0  0  0  3  0  0  0  0  0  0
   17.6490   15.2690   12.5490 C   0  0  0  0  0  0  0  0  0  0  0  0
   16.3580   15.5000   12.0840 C   0  0  0  0  0  0  0  0  0  0  0  0
   15.5050   15.2990   13.1420 N   0  0  0  0  0  0  0  0  0  0  0  0
   16.2050   14.9410   14.2680 C   0  0  0  0  0  0  0  0  0  0  0  0
   19.6240   15.9530    9.3580 C   0  0  0  0  0  1  0  0  0  0  0  0
   14.5020   15.4040   13.0890 H   0  0  0  0  0  0  0  0  0  0  0  0
   15.5170   14.6630   15.5550 C   0  0  0  0  0  1  0  0  0  0  0  0
   18.7680   12.9590   16.7080 N   0  0  0  0  0  0  0  0  0  0  0  0
   17.9110   13.3180   17.1280 H   0  0  0  0  0  0  0  0  0  0  0  0
   18.9310   11.5550   17.0900 C   0  0  0  0  0  2  0  0  0  0  0  0
   19.8250   11.4120   18.2930 C   0  0  0  0  0  0  0  0  0  0  0  0
   20.9290   10.5550   18.2920 C   0  0  0  0  0  3  0  0  0  0  0  0
   19.5590   12.1040   19.4710 C   0  0  0  0  0  3  0  0  0  0  0  0
   21.7160   10.4350   19.4340 C   0  0  0  0  0  3  0  0  0  0  0  0
   20.3040   12.0080   20.5970 N   0  0  0  0  0  0  0  0  0  0  0  0
   21.3660   11.1770   20.5500 C   0  0  0  0  0  3  0  0  0  0  0  0
  1 15  1  0
  2  1  1  0
  3 11  2  0
  3  2  1  0
  4  6  1  0
  5  4  2  0
  5  7  1  0
  6  8  2  0
  7  9  2  0
  8  3  1  0
  9  8  1  0
  9 10  1  0
 10 11  1  0
 11 14  1  0
 12  4  1  0
 13 10  1  0
 15 17  1  0
 15 16  1  0
 17 18  1  0
 18 20  1  0
 19 18  2  0
 19 21  1  0
 20 22  2  0
 21 23  2  0
 23 22  1  0
M  END
>  <vina_score>  (2) 
-6.3239999999999998

>  <pose_id>  (2) 
2

$$$$

     RDKit          3D

 23 25  0  0  0  0  0  0  0  0999 V2000
   19.5050   12.0050   13.9500 C   0  0  0  0  0  2  0  0  0  0  0  0
   20.8570   12.6460   14.2920 C   0  0  0  0  0  2  0  0  0  0  0  0
   21.9350   12.2210   13.3390 C   0  0  0  0  0  0  0  0  0  0  0  0
   22.8520   14.7500   10.6030 C   0  0  0  0  0  0  0  0  0  0  0  0
   23.8270   13.9480   10.0000 C   0  0  0  0  0  3  0  0  0  0  0  0
   22.1470   14.2670   11.7170 C   0  0  0  0  0  3  0  0  0  0  0  0
   24.1370   12.6790   10.4980 C   0  0  0  0  0  3  0  0  0  0  0  0
   22.4410   12.9890   12.2400 C   0  0  0  0  0  0  0  0  0  0  0  0
   23.4290   12.2300   11.6190 C   0  0  0  0  0  0  0  0  0  0  0  0
   23.5210   11.0440   12.3070 N   0  0  0  0  0  0  0  0  0  0  0  0
   22.6320   11.0210   13.3530 C   0  0  0  0  0  0  0  0  0  0  0  0
   22.5160   16.0950   10.0270 C   0  0  0  0  0  1  0  0  0  0  0  0
   24.1590   10.2990   12.0680 H   0  0  0  0  0  0  0  0  0  0  0  0
   22.5300    9.8490   14.2610 C   0  0  0  0  0  1  0  0  0  0  0  0
   18.8700   12.6980   12.8220 N   0  0  0  0  0  0  0  0  0  0  0  0
   17.9610   12.2780   12.6320 H   0  0  0  0  0  0  0  0  0  0  0  0
   18.6810   14.1190   13.1220 C   0  0  0  0  0  2  0  0  0  0  0  0
   18.1830   14.8740   11.9190 C   0  0  0  0  0  0  0  0  0  0  0  0
   19.0550   15.3520   10.9370 C   0  0  0  0  0  3  0  0  0  0  0  0
   16.8300   15.1600   11.7600 C   0  0  0  0  0  3  0  0  0  0  0  0
   18.5560   16.0660    9.8520 C   0  0  0  0  0  3  0  0  0  0  0  0
   16.3140   15.8520   10.7170 N   0  0  0  0  0  0  0  0  0  0  0  0
   17.1900   16.2870    9.7870 C   0  0  0  0  0  3  0  0  0  0  0  0
  1  2  1  0
  3 11  2  0
  3  2  1  0
  4  6  1  0
  5  7  1  0
  5  4  2  0
  6  8  2  0
  7  9  2  0
  8  3  1  0
  9  8  1  0
  9 10  1  0
 10 11  1  0
 11 14  1  0
 12  4  1  0
 13 10  1  0
 15 17  1  0
 15  1  1  0
 16 15  1  0
 18 17  1  0
 19 18  2  0
 20 18  1  0
 21 19  1  0
 22 20  2  0
 23 21  2  0
 23 22  1  0
M  END
>  <vina_score>  (3) 
-6.2729999999999997

>  <pose_id>  (3) 
3

$$$$

     RDKit          3D

 23 25  0  0  0  0  0  0  0  0999 V2000
   20.6530   12.9380   13.1000 C   0  0  0  0  0  2  0  0  0  0  0  0
   20.8250   14.4560   12.9430 C   0  0  0  0  0  2  0  0  0  0  0  0
   19.9770   15.0040   11.8340 C   0  0  0  0  0  0  0  0  0  0  0  0
   16.1810   14.7780   12.3520 C   0  0  0  0  0  0  0  0  0  0  0  0
   15.8430   15.3650   11.1290 C   0  0  0  0  0  3  0  0  0  0  0  0
   17.5330   14.5960   12.6850 C   0  0  0  0  0  3  0  0  0  0  0  0
   16.8250   15.8000   10.2330 C   0  0  0  0  0  3  0  0  0  0  0  0
   18.5440   15.0270   11.7990 C   0  0  0  0  0  0  0  0  0  0  0  0
   18.1640   15.6190   10.5980 C   0  0  0  0  0  0  0  0  0  0  0  0
   19.3170   15.9430    9.9240 N   0  0  0  0  0  0  0  0  0  0  0  0
   20.4220   15.5860   10.6550 C   0  0  0  0  0  0  0  0  0  0  0  0
   15.1070   14.2890   13.2800 C   0  0  0  0  0  1  0  0  0  0  0  0
   19.3370   16.3840    9.0150 H   0  0  0  0  0  0  0  0  0  0  0  0
   21.7990   15.8280   10.1520 C   0  0  0  0  0  1  0  0  0  0  0  0
   21.3960   12.4490   14.2670 N   0  0  0  0  0  0  0  0  0  0  0  0
   21.2860   11.4370   14.3410 H   0  0  0  0  0  0  0  0  0  0  0  0
   22.8220   12.7610   14.1470 C   0  0  0  0  0  2  0  0  0  0  0  0
   23.4410   12.0650   12.9640 C   0  0  0  0  0  0  0  0  0  0  0  0
   24.0340   12.7770   11.9180 C   0  0  0  0  0  3  0  0  0  0  0  0
   23.4090   10.6780   12.8500 C   0  0  0  0  0  3  0  0  0  0  0  0
   24.5740   12.0950   10.8320 C   0  0  0  0  0  3  0  0  0  0  0  0
   23.9240    9.9870   11.8070 N   0  0  0  0  0  0  0  0  0  0  0  0
   24.4960   10.7130   10.8230 C   0  0  0  0  0  3  0  0  0  0  0  0
  1 15  1  0
  2  1  1  0
  3  2  1  0
  4  6  1  0
  4 12  1  0
  5  4  2  0
  7  9  2  0
  7  5  1  0
  8  3  1  0
  8  6  2  0
  9  8  1  0
 10  9  1  0
 10 11  1  0
 11  3  2  0
 13 10  1  0
 14 11  1  0
 15 16  1  0
 17 15  1  0
 18 17  1  0
 19 18  2  0
 20 18  1  0
 21 19  1  0
 22 20  2  0
 23 21  2  0
 23 22  1  0
M  END
>  <vina_score>  (4) 
-6.2629999999999999

>  <pose_id>  (4) 
4

$$$$

     RDKit          3D

 23 25  0  0  0  0  0  0  0  0999 V2000
   23.3420   13.1760   11.4690 C   0  0  0  0  0  2  0  0  0  0  0  0
   22.8780   14.5170   12.0560 C   0  0  0  0  0  2  0  0  0  0  0  0
   21.6960   15.0720   11.3180 C   0  0  0  0  0  0  0  0  0  0  0  0
   18.2590   14.3430   12.8630 C   0  0  0  0  0  0  0  0  0  0  0  0
   17.5250   15.0090   11.8770 C   0  0  0  0  0  3  0  0  0  0  0  0
   19.6590   14.2890   12.7690 C   0  0  0  0  0  3  0  0  0  0  0  0
   18.1560   15.6480   10.8050 C   0  0  0  0  0  3  0  0  0  0  0  0
   20.3210   14.9270   11.6970 C   0  0  0  0  0  0  0  0  0  0  0  0
   19.5520   15.5910   10.7450 C   0  0  0  0  0  0  0  0  0  0  0  0
   20.4210   16.1180    9.8200 N   0  0  0  0  0  0  0  0  0  0  0  0
   21.7200   15.8210   10.1510 C   0  0  0  0  0  0  0  0  0  0  0  0
   17.5540   13.6360   13.9840 C   0  0  0  0  0  1  0  0  0  0  0  0
   20.1330   16.6500    9.0110 H   0  0  0  0  0  0  0  0  0  0  0  0
   22.8590   16.2770    9.3130 C   0  0  0  0  0  1  0  0  0  0  0  0
   22.8460   12.0560   12.2790 N   0  0  0  0  0  0  0  0  0  0  0  0
   23.4240   11.2320   12.1090 H   0  0  0  0  0  0  0  0  0  0  0  0
   22.8950   12.3800   13.7060 C   0  0  0  0  0  2  0  0  0  0  0  0
   24.1130   11.7900   14.3640 C   0  0  0  0  0  0  0  0  0  0  0  0
   24.5720   10.5080   14.0490 C   0  0  0  0  0  3  0  0  0  0  0  0
   24.8090   12.4900   15.3450 C   0  0  0  0  0  3  0  0  0  0  0  0
   25.6890    9.9910   14.6990 C   0  0  0  0  0  3  0  0  0  0  0  0
   25.8970   12.0150   15.9940 N   0  0  0  0  0  0  0  0  0  0  0  0
   26.3120   10.7760   15.6540 C   0  0  0  0  0  3  0  0  0  0  0  0
  1  2  1  0
  1 15  1  0
  3  8  1  0
  3  2  1  0
  4 12  1  0
  5  4  2  0
  6  4  1  0
  7  5  1  0
  8  6  2  0
  9  7  2  0
  9  8  1  0
 10 11  1  0
 10  9  1  0
 11  3  2  0
 13 10  1  0
 14 11  1  0
 15 17  1  0
 16 15  1  0
 17 18  1  0
 18 20  1  0
 19 18  2  0
 19 21  1  0
 20 22  2  0
 21 23  2  0
 23 22  1  0
M  END
>  <vina_score>  (5) 
-6.2240000000000002

>  <pose_id>  (5) 
5

$$$$
