
     RDKit          3D

 45 47  0  0  1  0  0  0  0  0999 V2000
   18.5180    8.6620   17.2610 C   0  0  0  0  0  3  0  0  0  0  0  0
   18.7130    9.4760   16.2100 C   0  0  0  0  0  3  0  0  0  0  0  0
   19.5830    7.8810   17.9920 C   0  0  0  0  0  3  0  0  0  0  0  0
   21.0160    8.3240   17.6970 C   0  0  0  0  0  1  0  0  0  0  0  0
   19.3630    8.0640   19.3890 O   0  0  0  0  0  0  0  0  0  0  0  0
   18.9720    9.3820   19.7720 C   0  0  0  0  0  3  0  0  0  0  0  0
   17.6980    9.2580   20.4180 O   0  0  0  0  0  0  0  0  0  0  0  0
   20.0760    9.9520   20.6820 C   0  0  0  0  0  3  0  0  0  0  0  0
   17.4650   10.1400   21.5290 C   0  0  0  0  0  3  0  0  0  0  0  0
   19.6770   11.3260   21.2260 C   0  0  0  0  0  3  0  0  0  0  0  0
   18.1490   11.4980   21.3250 C   0  0  0  0  0  3  0  0  0  0  0  0
   20.2950    9.0530   21.7890 O   0  0  0  0  0  0  0  0  0  0  0  0
   20.6650    9.6180   22.5000 H   0  0  0  0  0  0  0  0  0  0  0  0
   15.9420   10.2610   21.6750 C   0  0  0  0  0  2  0  0  0  0  0  0
   15.6100   11.0210   22.8370 O   0  0  0  0  0  0  0  0  0  0  0  0
   16.3280   11.6770   22.9350 H   0  0  0  0  0  0  0  0  0  0  0  0
   20.2060   12.3650   20.3880 O   0  0  0  0  0  0  0  0  0  0  0  0
   20.6600   11.9160   19.6440 H   0  0  0  0  0  0  0  0  0  0  0  0
   17.8500   12.4400   22.3610 O   0  0  0  0  0  0  0  0  0  0  0  0
   17.2910   13.1450   21.9880 H   0  0  0  0  0  0  0  0  0  0  0  0
   17.6180   10.2240   15.4720 C   0  0  0  0  0  3  0  0  0  0  0  0
   17.8200   10.1350   13.9310 C   0  0  0  0  0  3  0  0  0  0  0  0
   17.3400   11.6620   16.0410 C   0  0  2  0  0  0  0  0  0  0  0  0
   16.7230   10.9060   13.1790 C   0  0  0  0  0  2  0  0  0  0  0  0
   16.2620   12.3770   15.1740 C   0  0  0  0  0  2  0  0  0  0  0  0
   16.4980   12.3390   13.6600 C   0  0  0  0  0  3  0  0  0  0  0  0
   19.2160   10.4780   13.3940 C   0  0  0  0  0  1  0  0  0  0  0  0
   18.6060   12.5350   16.1680 C   0  0  0  0  0  1  0  0  0  0  0  0
   16.7610   11.5420   17.4780 C   0  0  0  0  0  1  0  0  0  0  0  0
   17.6100   13.1550   13.2980 O   0  0  0  0  0  0  0  0  0  0  0  0
   17.2390   14.3350   12.5740 C   0  0  0  0  0  3  0  0  0  0  0  0
   18.2590   15.3260   12.7260 O   0  0  0  0  0  0  0  0  0  0  0  0
   15.8620   14.8500   13.0580 C   0  0  0  0  0  3  0  0  0  0  0  0
   18.4860   15.7780   14.0760 C   0  0  0  0  0  3  0  0  0  0  0  0
   16.0100   15.8940   14.1670 C   0  0  0  0  0  3  0  0  0  0  0  0
   17.2610   15.6130   14.9950 C   0  0  0  0  0  3  0  0  0  0  0  0
   15.1160   15.4440   11.9780 O   0  0  0  0  0  0  0  0  0  0  0  0
   15.1230   14.7910   11.2540 H   0  0  0  0  0  0  0  0  0  0  0  0
   19.7350   15.1170   14.6820 C   0  0  0  0  0  2  0  0  0  0  0  0
   20.3130   15.9660   15.6750 O   0  0  0  0  0  0  0  0  0  0  0  0
   19.9150   16.8500   15.5620 H   0  0  0  0  0  0  0  0  0  0  0  0
   14.8400   15.8720   14.9980 O   0  0  0  0  0  0  0  0  0  0  0  0
   15.1410   15.6110   15.8920 H   0  0  0  0  0  0  0  0  0  0  0  0
   17.3260   16.5150   16.1040 O   0  0  0  0  0  0  0  0  0  0  0  0
   17.9520   16.1130   16.7390 H   0  0  0  0  0  0  0  0  0  0  0  0
  1  3  1  0
  2  1  2  0
  3  4  1  0
  3  5  1  0
  6  5  1  0
  6  7  1  1
  8  6  1  0
  7  9  1  0
  8 10  1  0
  8 12  1  0
  9 14  1  0
 10 17  1  0
 11 10  1  1
 11  9  1  0
 11 19  1  0
 12 13  1  0
 14 15  1  0
 15 16  1  0
 18 17  1  0
 20 19  1  0
 21 23  1  0
 21  2  1  0
 22 27  1  0
 22 21  1  0
 23 28  1  1
 23 29  1  0
 26 24  1  0
 24 22  1  1
 25 23  1  1
 26 30  1  0
 26 25  1  0
 31 32  1  1
 33 31  1  0
 31 30  1  0
 34 32  1  0
 33 37  1  0
 33 35  1  0
 34 39  1  0
 34 36  1  0
 36 35  1  1
 35 42  1  0
 36 44  1  0
 38 37  1  0
 39 40  1  0
 41 40  1  0
 42 43  1  0
 44 45  1  0
M  END
>  <vina_score>  (1) 
-7.6050000000000004

>  <pose_id>  (1) 
1

$$$$

     RDKit          3D

 45 47  0  0  1  0  0  0  0  0999 V2000
   18.7780    8.5430   16.9170 C   0  0  0  0  0  3  0  0  0  0  0  0
   18.3990    9.6310   16.2240 C   0  0  0  0  0  3  0  0  0  0  0  0
   18.0260    7.9130   18.0640 C   0  0  0  0  0  3  0  0  0  0  0  0
   17.8610    6.3960   17.9630 C   0  0  0  0  0  1  0  0  0  0  0  0
   18.7630    8.1790   19.2550 O   0  0  0  0  0  0  0  0  0  0  0  0
   18.6620    9.5170   19.7420 C   0  0  0  0  0  3  0  0  0  0  0  0
   17.4070    9.6080   20.4290 O   0  0  0  0  0  0  0  0  0  0  0  0
   19.8830    9.7800   20.6440 C   0  0  0  0  0  3  0  0  0  0  0  0
   17.3900   10.4340   21.6050 C   0  0  0  0  0  3  0  0  0  0  0  0
   19.7910   11.1620   21.2950 C   0  0  0  0  0  3  0  0  0  0  0  0
   18.3350   11.6350   21.4650 C   0  0  0  0  0  3  0  0  0  0  0  0
   19.9390    8.7760   21.6780 O   0  0  0  0  0  0  0  0  0  0  0  0
   19.0450    8.3740   21.6840 H   0  0  0  0  0  0  0  0  0  0  0  0
   15.9290   10.8540   21.8200 C   0  0  0  0  0  2  0  0  0  0  0  0
   15.7190   11.2610   23.1710 O   0  0  0  0  0  0  0  0  0  0  0  0
   14.7720   11.4970   23.2290 H   0  0  0  0  0  0  0  0  0  0  0  0
   20.5020   12.1310   20.5080 O   0  0  0  0  0  0  0  0  0  0  0  0
   20.5570   12.9440   21.0550 H   0  0  0  0  0  0  0  0  0  0  0  0
   18.2630   12.5390   22.5740 O   0  0  0  0  0  0  0  0  0  0  0  0
   17.8210   12.0870   23.3150 H   0  0  0  0  0  0  0  0  0  0  0  0
   19.1920   10.2640   15.0960 C   0  0  0  0  0  3  0  0  0  0  0  0
   19.7670   11.6460   15.5240 C   0  0  0  0  0  3  0  0  0  0  0  0
   18.4540   10.2340   13.7100 C   0  0  2  0  0  0  0  0  0  0  0  0
   20.5560   12.3010   14.3790 C   0  0  0  0  0  2  0  0  0  0  0  0
   19.3060   10.9730   12.6370 C   0  0  0  0  0  2  0  0  0  0  0  0
   19.8200   12.3610   13.0410 C   0  0  0  0  0  3  0  0  0  0  0  0
   18.7870   12.6360   16.1680 C   0  0  0  0  0  1  0  0  0  0  0  0
   17.0200   10.8040   13.7560 C   0  0  0  0  0  1  0  0  0  0  0  0
   18.3100    8.7600   13.2370 C   0  0  0  0  0  1  0  0  0  0  0  0
   18.7470   13.2980   13.1160 O   0  0  0  0  0  0  0  0  0  0  0  0
   19.1780   14.6620   13.0440 C   0  0  0  0  0  3  0  0  0  0  0  0
   18.3540   15.4660   13.8950 O   0  0  0  0  0  0  0  0  0  0  0  0
   19.1470   15.1590   11.5790 C   0  0  0  0  0  3  0  0  0  0  0  0
   16.9570   15.5020   13.5460 C   0  0  0  0  0  3  0  0  0  0  0  0
   17.8170   15.8370   11.2440 C   0  0  0  0  0  3  0  0  0  0  0  0
   16.6860   15.2150   12.0570 C   0  0  0  0  0  3  0  0  0  0  0  0
   20.2080   16.1000   11.3230 O   0  0  0  0  0  0  0  0  0  0  0  0
   21.0110   15.7180   11.7230 H   0  0  0  0  0  0  0  0  0  0  0  0
   16.1310   14.5780   14.4560 C   0  0  0  0  0  2  0  0  0  0  0  0
   14.7710   15.0140   14.5020 O   0  0  0  0  0  0  0  0  0  0  0  0
   14.5550   15.3680   13.6190 H   0  0  0  0  0  0  0  0  0  0  0  0
   17.5590   15.7050    9.8380 O   0  0  0  0  0  0  0  0  0  0  0  0
   17.7370   14.7690    9.6110 H   0  0  0  0  0  0  0  0  0  0  0  0
   15.4290   15.7640   11.6480 O   0  0  0  0  0  0  0  0  0  0  0  0
   14.7470   15.2700   12.1460 H   0  0  0  0  0  0  0  0  0  0  0  0
  1  3  1  0
  2  1  2  0
  3  4  1  0
  3  5  1  0
  6  5  1  0
  6  7  1  1
  8  6  1  0
  7  9  1  0
  8 10  1  0
  8 12  1  0
  9 14  1  0
 10 17  1  0
 11 10  1  1
 11  9  1  0
 11 19  1  0
 12 13  1  0
 14 15  1  0
 15 16  1  0
 17 18  1  0
 19 20  1  0
 22 21  1  0
 21  2  1  0
 22 27  1  0
 23 28  1  1
 23 21  1  0
 24 22  1  0
 25 26  1  0
 25 23  1  0
 26 30  1  0
 26 24  1  6
 29 23  1  0
 31 30  1  0
 31 32  1  1
 33 37  1  0
 33 31  1  1
 34 32  1  1
 34 39  1  0
 35 42  1  0
 35 33  1  1
 36 35  1  0
 36 44  1  0
 36 34  1  0
 37 38  1  0
 39 40  1  0
 41 40  1  0
 43 42  1  0
 44 45  1  0
M  END
>  <vina_score>  (2) 
-7.5529999999999999

>  <pose_id>  (2) 
2

$$$$

     RDKit          3D

 45 47  0  0  1  0  0  0  0  0999 V2000
   18.1480    7.3150   16.9330 C   0  0  0  0  0  3  0  0  0  0  0  0
   19.1330    8.1220   16.5000 C   0  0  0  0  0  3  0  0  0  0  0  0
   17.0020    7.7130   17.8300 C   0  0  0  0  0  3  0  0  0  0  0  0
   16.9140    6.9320   19.1420 C   0  0  0  0  0  1  0  0  0  0  0  0
   17.1810    9.0870   18.1690 O   0  0  0  0  0  0  0  0  0  0  0  0
   17.5400    9.3320   19.5290 C   0  0  0  0  0  3  0  0  0  0  0  0
   18.9270    9.6930   19.5260 O   0  0  0  0  0  0  0  0  0  0  0  0
   16.6120   10.4390   20.0650 C   0  0  0  0  0  3  0  0  0  0  0  0
   19.3200   10.6970   20.4770 C   0  0  0  0  0  3  0  0  0  0  0  0
   17.0070   10.8380   21.4890 C   0  0  0  0  0  3  0  0  0  0  0  0
   18.5020   10.5990   21.7720 C   0  0  0  0  0  3  0  0  0  0  0  0
   16.7050   11.5970   19.2090 O   0  0  0  0  0  0  0  0  0  0  0  0
   17.0920   12.2960   19.7760 H   0  0  0  0  0  0  0  0  0  0  0  0
   20.8240   10.5070   20.7130 C   0  0  0  0  0  2  0  0  0  0  0  0
   21.4550   11.7640   20.9550 O   0  0  0  0  0  0  0  0  0  0  0  0
   21.9480   11.9720   20.1370 H   0  0  0  0  0  0  0  0  0  0  0  0
   16.2320   10.0990   22.4450 O   0  0  0  0  0  0  0  0  0  0  0  0
   15.6310   10.7460   22.8730 H   0  0  0  0  0  0  0  0  0  0  0  0
   18.9390   11.5140   22.7830 O   0  0  0  0  0  0  0  0  0  0  0  0
   18.5790   11.2240   23.6410 H   0  0  0  0  0  0  0  0  0  0  0  0
   20.2930    7.6870   15.6250 C   0  0  0  0  0  3  0  0  0  0  0  0
   21.5400    7.3300   16.4850 C   0  0  0  0  0  3  0  0  0  0  0  0
   20.5570    8.6410   14.4050 C   0  0  2  0  0  0  0  0  0  0  0  0
   22.7250    6.9060   15.6020 C   0  0  0  0  0  2  0  0  0  0  0  0
   21.8090    8.1600   13.6150 C   0  0  0  0  0  2  0  0  0  0  0  0
   23.0540    7.8680   14.4610 C   0  0  0  0  0  3  0  0  0  0  0  0
   21.9690    8.3550   17.5440 C   0  0  0  0  0  1  0  0  0  0  0  0
   20.6970   10.1270   14.7980 C   0  0  0  0  0  1  0  0  0  0  0  0
   19.3510    8.5720   13.4280 C   0  0  0  0  0  1  0  0  0  0  0  0
   23.6080    9.0740   14.9850 O   0  0  0  0  0  0  0  0  0  0  0  0
   24.3540    9.8240   14.0190 C   0  0  0  0  0  3  0  0  0  0  0  0
   25.7510    9.5700   14.1970 O   0  0  0  0  0  0  0  0  0  0  0  0
   24.0250   11.3310   14.1380 C   0  0  0  0  0  3  0  0  0  0  0  0
   26.2940    9.9680   15.4710 C   0  0  0  0  0  3  0  0  0  0  0  0
   25.0070   12.0490   15.0660 C   0  0  0  0  0  3  0  0  0  0  0  0
   25.5000   11.0990   16.1530 C   0  0  0  0  0  3  0  0  0  0  0  0
   24.0660   11.9800   12.8530 O   0  0  0  0  0  0  0  0  0  0  0  0
   24.1380   12.9350   13.0340 H   0  0  0  0  0  0  0  0  0  0  0  0
   26.4650    8.7590   16.4060 C   0  0  0  0  0  2  0  0  0  0  0  0
   25.3970    8.7100   17.3550 O   0  0  0  0  0  0  0  0  0  0  0  0
   24.8490    9.5040   17.2080 H   0  0  0  0  0  0  0  0  0  0  0  0
   24.3600   13.1900   15.6500 O   0  0  0  0  0  0  0  0  0  0  0  0
   24.9630   13.9500   15.5140 H   0  0  0  0  0  0  0  0  0  0  0  0
   26.3180   11.8070   17.0900 O   0  0  0  0  0  0  0  0  0  0  0  0
   27.2020   11.3900   17.0420 H   0  0  0  0  0  0  0  0  0  0  0  0
  1  3  1  0
  2  1  2  0
  3  5  1  0
  3  4  1  0
  6  5  1  0
  6  8  1  0
  6  7  1  0
  9  7  1  6
  8 12  1  0
 10  8  1  1
  9 14  1  0
 11  9  1  0
 11 10  1  0
 10 17  1  0
 11 19  1  0
 12 13  1  0
 14 15  1  0
 16 15  1  0
 17 18  1  0
 19 20  1  0
 22 21  1  0
 21  2  1  0
 22 27  1  0
 23 28  1  1
 23 21  1  0
 24 22  1  0
 25 23  1  0
 25 26  1  0
 26 30  1  0
 26 24  1  6
 29 23  1  0
 33 31  1  0
 31 32  1  1
 31 30  1  0
 34 32  1  0
 33 37  1  0
 33 35  1  0
 34 36  1  0
 34 39  1  0
 35 42  1  0
 36 35  1  1
 36 44  1  0
 37 38  1  0
 39 40  1  0
 41 40  1  0
 43 42  1  0
 45 44  1  0
M  END
>  <vina_score>  (3) 
-7.4710000000000001

>  <pose_id>  (3) 
3

$$$$

     RDKit          3D

 45 47  0  0  1  0  0  0  0  0999 V2000
   22.2320   13.7550   12.0130 C   0  0  0  0  0  3  0  0  0  0  0  0
   22.5900   13.1140   13.1390 C   0  0  0  0  0  3  0  0  0  0  0  0
   21.2990   14.9380   11.9210 C   0  0  0  0  0  3  0  0  0  0  0  0
   21.6660   15.9610   10.8460 C   0  0  0  0  0  1  0  0  0  0  0  0
   20.0030   14.4360   11.6020 O   0  0  0  0  0  0  0  0  0  0  0  0
   18.9270   15.0410   12.3180 C   0  0  0  0  0  3  0  0  0  0  0  0
   17.8240   15.1210   11.4070 O   0  0  0  0  0  0  0  0  0  0  0  0
   18.6440   14.1740   13.5590 C   0  0  0  0  0  3  0  0  0  0  0  0
   16.5200   14.9080   11.9730 C   0  0  0  0  0  3  0  0  0  0  0  0
   17.4270   14.6980   14.3240 C   0  0  0  0  0  3  0  0  0  0  0  0
   16.4340   15.4410   13.4090 C   0  0  0  0  0  3  0  0  0  0  0  0
   18.3910   12.8150   13.1450 O   0  0  0  0  0  0  0  0  0  0  0  0
   17.4630   12.6430   13.4090 H   0  0  0  0  0  0  0  0  0  0  0  0
   15.5190   15.5890   11.0300 C   0  0  0  0  0  2  0  0  0  0  0  0
   14.2100   15.0530   11.2170 O   0  0  0  0  0  0  0  0  0  0  0  0
   13.6850   15.7770   11.6120 H   0  0  0  0  0  0  0  0  0  0  0  0
   17.8420   15.5860   15.3730 O   0  0  0  0  0  0  0  0  0  0  0  0
   18.7760   15.3590   15.5730 H   0  0  0  0  0  0  0  0  0  0  0  0
   15.1200   15.3430   13.9680 O   0  0  0  0  0  0  0  0  0  0  0  0
   14.8000   14.4300   13.8530 H   0  0  0  0  0  0  0  0  0  0  0  0
   23.5050   11.9050   13.1990 C   0  0  0  0  0  3  0  0  0  0  0  0
   22.8160   10.6510   12.5840 C   0  0  0  0  0  3  0  0  0  0  0  0
   24.1800   11.6920   14.6020 C   0  0  2  0  0  0  0  0  0  0  0  0
   23.7320    9.4190   12.6590 C   0  0  0  0  0  2  0  0  0  0  0  0
   25.0330   10.3900   14.5890 C   0  0  0  0  0  2  0  0  0  0  0  0
   24.3300    9.1430   14.0380 C   0  0  0  0  0  3  0  0  0  0  0  0
   21.3990   10.3270   13.0750 C   0  0  0  0  0  1  0  0  0  0  0  0
   23.1800   11.6780   15.7770 C   0  0  0  0  0  1  0  0  0  0  0  0
   25.1540   12.8690   14.8860 C   0  0  0  0  0  1  0  0  0  0  0  0
   23.3110    8.6980   14.9310 O   0  0  0  0  0  0  0  0  0  0  0  0
   23.5610    7.3970   15.4760 C   0  0  0  0  0  3  0  0  0  0  0  0
   22.3160    6.7250   15.6900 O   0  0  0  0  0  0  0  0  0  0  0  0
   24.3830    7.5110   16.7820 C   0  0  0  0  0  3  0  0  0  0  0  0
   21.4280    7.3550   16.6340 C   0  0  0  0  0  3  0  0  0  0  0  0
   23.4780    7.5640   18.0140 C   0  0  0  0  0  3  0  0  0  0  0  0
   22.1530    8.2370   17.6680 C   0  0  0  0  0  3  0  0  0  0  0  0
   25.2820    6.3950   16.9340 O   0  0  0  0  0  0  0  0  0  0  0  0
   24.7650    5.6880   17.3610 H   0  0  0  0  0  0  0  0  0  0  0  0
   20.3130    8.1320   15.9160 C   0  0  0  0  0  2  0  0  0  0  0  0
   20.4070    9.5260   16.2150 O   0  0  0  0  0  0  0  0  0  0  0  0
   20.9490    9.9320   15.5130 H   0  0  0  0  0  0  0  0  0  0  0  0
   24.1460    8.2800   19.0630 O   0  0  0  0  0  0  0  0  0  0  0  0
   23.6800    9.1360   19.1560 H   0  0  0  0  0  0  0  0  0  0  0  0
   21.3610    8.3990   18.8490 O   0  0  0  0  0  0  0  0  0  0  0  0
   21.3940    9.3520   19.0650 H   0  0  0  0  0  0  0  0  0  0  0  0
  1  2  2  0
  3  4  1  0
  3  1  1  0
  5  3  1  0
  6  5  1  0
  6  8  1  0
  9  7  1  0
  6  7  1  0
  8 12  1  0
  8 10  1  1
  9 14  1  0
  9 11  1  0
 10 17  1  0
 11 19  1  0
 11 10  1  1
 12 13  1  0
 14 15  1  0
 15 16  1  0
 17 18  1  0
 20 19  1  0
 21  2  1  0
 21 23  1  0
 24 22  1  0
 22 27  1  0
 22 21  1  1
 23 29  1  1
 23 28  1  0
 24 26  1  0
 25 23  1  0
 26 25  1  1
 26 30  1  0
 31 30  1  0
 31 32  1  1
 33 31  1  6
 34 32  1  0
 33 37  1  0
 33 35  1  0
 34 39  1  0
 34 36  1  0
 35 42  1  0
 36 35  1  1
 36 44  1  0
 37 38  1  0
 39 40  1  0
 41 40  1  0
 42 43  1  0
 44 45  1  0
M  END
>  <vina_score>  (4) 
-7.4429999999999996

>  <pose_id>  (4) 
4

$$$$

     RDKit          3D

 45 47  0  0  1  0  0  0  0  0999 V2000
   18.3840    9.9930   18.4400 C   0  0  0  0  0  3  0  0  0  0  0  0
   19.0960    8.8680   18.6280 C   0  0  0  0  0  3  0  0  0  0  0  0
   16.9070   10.1640   18.6960 C   0  0  0  0  0  3  0  0  0  0  0  0
   16.5580   10.7390   20.0690 C   0  0  0  0  0  1  0  0  0  0  0  0
   16.4060   11.0720   17.7180 O   0  0  0  0  0  0  0  0  0  0  0  0
   17.3480   11.4670   16.7210 C   0  0  0  0  0  3  0  0  0  0  0  0
   17.0140   10.7380   15.5330 O   0  0  0  0  0  0  0  0  0  0  0  0
   17.2460   12.9960   16.5590 C   0  0  0  0  0  3  0  0  0  0  0  0
   17.1890   11.4400   14.2910 C   0  0  0  0  0  3  0  0  0  0  0  0
   18.1500   13.4850   15.4260 C   0  0  0  0  0  3  0  0  0  0  0  0
   18.3800   12.4050   14.3510 C   0  0  0  0  0  3  0  0  0  0  0  0
   15.8810   13.3550   16.2610 O   0  0  0  0  0  0  0  0  0  0  0  0
   15.9370   13.8920   15.4430 H   0  0  0  0  0  0  0  0  0  0  0  0
   17.3510   10.3680   13.2050 C   0  0  0  0  0  2  0  0  0  0  0  0
   18.6860   10.3640   12.7010 O   0  0  0  0  0  0  0  0  0  0  0  0
   18.6060   10.1650   11.7480 H   0  0  0  0  0  0  0  0  0  0  0  0
   19.4230   13.8960   15.9470 O   0  0  0  0  0  0  0  0  0  0  0  0
   19.9050   14.3130   15.2020 H   0  0  0  0  0  0  0  0  0  0  0  0
   18.6500   13.0430   13.0980 O   0  0  0  0  0  0  0  0  0  0  0  0
   18.5730   12.3800   12.3880 H   0  0  0  0  0  0  0  0  0  0  0  0
   20.5750    8.7140   18.3300 C   0  0  0  0  0  3  0  0  0  0  0  0
   21.4080    9.8170   19.0470 C   0  0  0  0  0  3  0  0  0  0  0  0
   20.8950    8.5030   16.8060 C   0  0  2  0  0  0  0  0  0  0  0  0
   22.9060    9.6760   18.7340 C   0  0  0  0  0  2  0  0  0  0  0  0
   22.4350    8.4350   16.5900 C   0  0  0  0  0  2  0  0  0  0  0  0
   23.2460    9.5580   17.2480 C   0  0  0  0  0  3  0  0  0  0  0  0
   20.9330   11.2660   18.8770 C   0  0  0  0  0  1  0  0  0  0  0  0
   20.2600    9.5660   15.8850 C   0  0  0  0  0  1  0  0  0  0  0  0
   20.3120    7.1380   16.3440 C   0  0  0  0  0  1  0  0  0  0  0  0
   23.0130   10.8040   16.5940 O   0  0  0  0  0  0  0  0  0  0  0  0
   24.1990   11.5900   16.4310 C   0  0  0  0  0  3  0  0  0  0  0  0
   24.0270   12.4850   15.3280 O   0  0  0  0  0  0  0  0  0  0  0  0
   25.4300   10.6720   16.2380 C   0  0  0  0  0  3  0  0  0  0  0  0
   23.8230   11.8560   14.0480 C   0  0  0  0  0  3  0  0  0  0  0  0
   25.7130   10.4150   14.7570 C   0  0  0  0  0  3  0  0  0  0  0  0
   24.4130   10.4350   13.9580 C   0  0  0  0  0  3  0  0  0  0  0  0
   26.6110   11.2500   16.8270 O   0  0  0  0  0  0  0  0  0  0  0  0
   27.3540   10.6790   16.5590 H   0  0  0  0  0  0  0  0  0  0  0  0
   22.3390   11.8740   13.6480 C   0  0  0  0  0  2  0  0  0  0  0  0
   21.5980   12.7230   14.5270 O   0  0  0  0  0  0  0  0  0  0  0  0
   20.8430   13.0710   14.0170 H   0  0  0  0  0  0  0  0  0  0  0  0
   26.3720    9.1480   14.6140 O   0  0  0  0  0  0  0  0  0  0  0  0
   27.0490    9.2650   13.9160 H   0  0  0  0  0  0  0  0  0  0  0  0
   24.6670   10.0700   12.5980 O   0  0  0  0  0  0  0  0  0  0  0  0
   23.8770    9.5760   12.3010 H   0  0  0  0  0  0  0  0  0  0  0  0
  1  2  2  0
  1  3  1  0
  3  4  1  0
  5  3  1  0
  6  5  1  0
  6  7  1  0
  8 12  1  0
  8  6  1  0
  9 14  1  0
 11  9  1  0
  9  7  1  1
 10 17  1  0
 10  8  1  6
 11 19  1  0
 11 10  1  0
 13 12  1  0
 15 14  1  0
 16 15  1  0
 18 17  1  0
 20 19  1  0
 21  2  1  0
 22 21  1  0
 22 27  1  0
 23 21  1  0
 24 22  1  0
 25 23  1  0
 25 26  1  0
 26 30  1  0
 26 24  1  6
 23 28  1  6
 29 23  1  0
 31 30  1  0
 31 32  1  0
 33 31  1  0
 33 37  1  0
 34 39  1  0
 34 32  1  0
 35 42  1  0
 33 35  1  6
 36 44  1  0
 36 34  1  0
 36 35  1  1
 38 37  1  0
 39 40  1  0
 41 40  1  0
 43 42  1  0
 45 44  1  0
M  END
>  <vina_score>  (5) 
-7.4370000000000003

>  <pose_id>  (5) 
5

$$$$
