
     RDKit          3D

 26 28  0  0  0  0  0  0  0  0999 V2000
   20.7350   13.6450   13.4290 N   0  0  0  0  0  0  0  0  0  0  0  0
   20.7010   12.2270   13.0190 C   0  0  0  0  0  2  0  0  0  0  0  0
   19.5410   11.4750   13.5870 C   0  0  0  0  0  0  0  0  0  0  0  0
   17.8460   10.0910   13.3680 C   0  0  0  0  0  0  0  0  0  0  0  0
   17.8810   10.4460   14.6970 C   0  0  0  0  0  3  0  0  0  0  0  0
   18.8470   10.7160   12.6890 O   0  0  0  0  0  0  0  0  0  0  0  0
   18.9660   11.3410   14.8370 C   0  0  0  0  0  3  0  0  0  0  0  0
   16.9750    9.2090   12.5810 C   0  0  0  0  0  1  0  0  0  0  0  0
   22.0760   14.2530   13.4220 C   0  0  0  0  0  2  0  0  0  0  0  0
   22.8610   14.0930   12.1370 C   0  0  0  0  0  0  0  0  0  0  0  0
   22.4960   14.8860   11.0340 C   0  0  0  0  0  3  0  0  0  0  0  0
   23.9550   13.2250   11.9980 C   0  0  0  0  0  3  0  0  0  0  0  0
   23.1960   14.8050    9.8270 C   0  0  0  0  0  3  0  0  0  0  0  0
   24.6480   13.1390   10.7880 C   0  0  0  0  0  3  0  0  0  0  0  0
   24.2680   13.9280    9.7010 C   0  0  0  0  0  3  0  0  0  0  0  0
   19.5930   14.4910   13.3580 C   0  0  0  0  0  0  0  0  0  0  0  0
   18.9790   15.3310   14.6830 S   0  0  0  0  0  0  0  0  0  0  0  0
   19.1280   14.5700   12.0430 N   0  0  0  0  0  0  0  0  0  0  0  0
   19.8470   14.3390   11.3760 H   0  0  0  0  0  0  0  0  0  0  0  0
   17.9600   15.1200   11.4570 C   0  0  0  0  0  0  0  0  0  0  0  0
   16.6840   14.9460   11.9880 C   0  0  0  0  0  3  0  0  0  0  0  0
   18.0910   15.8330   10.2390 C   0  0  0  0  0  0  0  0  0  0  0  0
   15.5580   15.5210   11.3840 C   0  0  0  0  0  3  0  0  0  0  0  0
   16.9510   16.4100    9.6490 C   0  0  0  0  0  3  0  0  0  0  0  0
   15.6930   16.2640   10.2250 C   0  0  0  0  0  3  0  0  0  0  0  0
   19.4220   16.0130    9.5430 C   0  0  0  0  0  1  0  0  0  0  0  0
  2  1  1  0
  2  3  1  0
  3  7  2  0
  4  5  2  0
  5  7  1  0
  6  4  1  0
  6  3  1  0
  8  4  1  0
  9  1  1  0
 10  9  1  0
 11 10  2  0
 12 10  1  0
 13 11  1  0
 14 12  2  0
 15 13  2  0
 15 14  1  0
 16  1  1  0
 16 17  2  0
 18 16  1  0
 19 18  1  0
 20 21  2  0
 20 18  1  0
 22 20  1  0
 23 21  1  0
 24 25  1  0
 24 22  2  0
 25 23  2  0
 26 22  1  0
M  RAD  8   2   3   5   2   7   2   8   2   9   3  11   2  12   2  13   2
M  RAD  7  14   2  15   2  21   2  23   2  24   2  25   2  26   2
M  END
>  <vina_score>  (1) 
-7.3979999999999997

>  <pose_id>  (1) 
1

$$$$

     RDKit          3D

 26 28  0  0  0  0  0  0  0  0999 V2000
   20.4420   13.8410   13.8310 N   0  0  0  0  0  0  0  0  0  0  0  0
   20.4010   12.3790   13.6310 C   0  0  0  0  0  2  0  0  0  0  0  0
   20.7480   11.6040   14.8610 C   0  0  0  0  0  0  0  0  0  0  0  0
   20.2450   10.8260   16.8550 C   0  0  0  0  0  0  0  0  0  0  0  0
   21.5110   10.3670   16.5740 C   0  0  0  0  0  3  0  0  0  0  0  0
   19.7790   11.5810   15.8230 O   0  0  0  0  0  0  0  0  0  0  0  0
   21.8380   10.8720   15.2940 C   0  0  0  0  0  3  0  0  0  0  0  0
   19.3450   10.6640   18.0040 C   0  0  0  0  0  1  0  0  0  0  0  0
   21.7920   14.4250   13.8160 C   0  0  0  0  0  2  0  0  0  0  0  0
   22.6960   13.9560   12.6950 C   0  0  0  0  0  0  0  0  0  0  0  0
   22.5130   14.5140   11.4170 C   0  0  0  0  0  3  0  0  0  0  0  0
   23.7290   13.0220   12.8700 C   0  0  0  0  0  3  0  0  0  0  0  0
   23.3300   14.1430   10.3460 C   0  0  0  0  0  3  0  0  0  0  0  0
   24.5400   12.6450   11.7950 C   0  0  0  0  0  3  0  0  0  0  0  0
   24.3390   13.2040   10.5330 C   0  0  0  0  0  3  0  0  0  0  0  0
   19.3230   14.6810   13.5690 C   0  0  0  0  0  0  0  0  0  0  0  0
   18.5620   15.6060   14.7550 S   0  0  0  0  0  0  0  0  0  0  0  0
   19.0190   14.6750   12.2060 N   0  0  0  0  0  0  0  0  0  0  0  0
   19.8110   14.4010   11.6460 H   0  0  0  0  0  0  0  0  0  0  0  0
   17.9340   15.1860   11.4500 C   0  0  0  0  0  0  0  0  0  0  0  0
   16.6020   15.0480   11.8340 C   0  0  0  0  0  3  0  0  0  0  0  0
   18.2160   15.8190   10.2140 C   0  0  0  0  0  0  0  0  0  0  0  0
   15.5620   15.5830   11.0650 C   0  0  0  0  0  3  0  0  0  0  0  0
   17.1590   16.3570    9.4550 C   0  0  0  0  0  3  0  0  0  0  0  0
   15.8400   16.2490    9.8850 C   0  0  0  0  0  3  0  0  0  0  0  0
   19.6220   15.9530    9.6720 C   0  0  0  0  0  1  0  0  0  0  0  0
  2  1  1  0
  2  3  1  0
  3  7  2  0
  3  6  1  0
  4  8  1  0
  5  4  2  0
  6  4  1  0
  7  5  1  0
  9  1  1  0
 10 12  1  0
 10  9  1  0
 11 10  2  0
 13 15  2  0
 13 11  1  0
 14 12  2  0
 15 14  1  0
 16  1  1  0
 16 17  2  0
 18 16  1  0
 19 18  1  0
 20 21  2  0
 20 18  1  0
 22 20  1  0
 23 21  1  0
 24 25  1  0
 24 22  2  0
 25 23  2  0
 26 22  1  0
M  RAD  8   2   3   5   2   7   2   8   2   9   3  11   2  12   2  13   2
M  RAD  7  14   2  15   2  21   2  23   2  24   2  25   2  26   2
M  END
>  <vina_score>  (2) 
-7.1660000000000004

>  <pose_id>  (2) 
2

$$$$

     RDKit          3D

 26 28  0  0  0  0  0  0  0  0999 V2000
   19.7040   13.2080   13.7090 N   0  0  0  0  0  0  0  0  0  0  0  0
   20.5100   12.2070   12.9820 C   0  0  0  0  0  2  0  0  0  0  0  0
   21.9790   12.4730   13.0430 C   0  0  0  0  0  0  0  0  0  0  0  0
   23.9050   12.8930   12.0680 C   0  0  0  0  0  0  0  0  0  0  0  0
   24.1570   12.8760   13.4200 C   0  0  0  0  0  3  0  0  0  0  0  0
   22.5870   12.6440   11.8330 O   0  0  0  0  0  0  0  0  0  0  0  0
   22.9200   12.5990   14.0480 C   0  0  0  0  0  3  0  0  0  0  0  0
   24.7480   13.1180   10.8870 C   0  0  0  0  0  1  0  0  0  0  0  0
   20.0290   14.6070   13.3900 C   0  0  0  0  0  2  0  0  0  0  0  0
   19.6130   15.0780   12.0120 C   0  0  0  0  0  0  0  0  0  0  0  0
   18.2380   15.2160   11.7450 C   0  0  0  0  0  3  0  0  0  0  0  0
   20.5220   15.4200   11.0000 C   0  0  0  0  0  3  0  0  0  0  0  0
   17.7880   15.6700   10.5030 C   0  0  0  0  0  3  0  0  0  0  0  0
   20.0710   15.8660    9.7540 C   0  0  0  0  0  3  0  0  0  0  0  0
   18.7030   15.9890    9.5050 C   0  0  0  0  0  3  0  0  0  0  0  0
   18.4310   12.9050   14.2690 C   0  0  0  0  0  0  0  0  0  0  0  0
   17.4700   11.6240   13.7460 S   0  0  0  0  0  0  0  0  0  0  0  0
   18.1520   13.7640   15.3350 N   0  0  0  0  0  0  0  0  0  0  0  0
   18.9910   14.1610   15.7270 H   0  0  0  0  0  0  0  0  0  0  0  0
   16.9900   14.0040   16.1100 C   0  0  0  0  0  0  0  0  0  0  0  0
   16.3690   13.0250   16.8820 C   0  0  0  0  0  3  0  0  0  0  0  0
   16.3980   15.2900   16.0520 C   0  0  0  0  0  0  0  0  0  0  0  0
   15.2310   13.3110   17.6460 C   0  0  0  0  0  3  0  0  0  0  0  0
   15.2570   15.5640   16.8320 C   0  0  0  0  0  3  0  0  0  0  0  0
   14.6850   14.5820   17.6330 C   0  0  0  0  0  3  0  0  0  0  0  0
   16.9510   16.4010   15.1860 C   0  0  0  0  0  1  0  0  0  0  0  0
  1 16  1  0
  2  3  1  0
  2  1  1  0
  3  7  2  0
  4  5  2  0
  5  7  1  0
  6  4  1  0
  6  3  1  0
  8  4  1  0
  9  1  1  0
 10  9  1  0
 11 10  2  0
 12 10  1  0
 13 11  1  0
 14 12  2  0
 15 14  1  0
 15 13  2  0
 16 18  1  0
 17 16  2  0
 18 19  1  0
 18 20  1  0
 20 21  2  0
 21 23  1  0
 22 20  1  0
 22 24  2  0
 24 25  1  0
 25 23  2  0
 26 22  1  0
M  RAD  8   2   3   5   2   7   2   8   2   9   3  11   2  12   2  13   2
M  RAD  7  14   2  15   2  21   2  23   2  24   2  25   2  26   2
M  END
>  <vina_score>  (3) 
-7.0540000000000003

>  <pose_id>  (3) 
3

$$$$

     RDKit          3D

 26 28  0  0  0  0  0  0  0  0999 V2000
   21.5680   12.9240   12.6940 N   0  0  0  0  0  0  0  0  0  0  0  0
   20.5410   11.8720   12.8280 C   0  0  0  0  0  2  0  0  0  0  0  0
   19.4170   12.2550   13.7350 C   0  0  0  0  0  0  0  0  0  0  0  0
   17.2890   12.6740   14.0970 C   0  0  0  0  0  0  0  0  0  0  0  0
   17.9190   12.8210   15.3110 C   0  0  0  0  0  3  0  0  0  0  0  0
   18.1920   12.3370   13.1370 O   0  0  0  0  0  0  0  0  0  0  0  0
   19.2890   12.5580   15.0780 C   0  0  0  0  0  3  0  0  0  0  0  0
   15.8930   12.8080   13.6620 C   0  0  0  0  0  1  0  0  0  0  0  0
   21.0680   14.2960   12.8690 C   0  0  0  0  0  2  0  0  0  0  0  0
   20.5690   14.9760   11.6110 C   0  0  0  0  0  0  0  0  0  0  0  0
   19.1800   15.1350   11.4490 C   0  0  0  0  0  3  0  0  0  0  0  0
   21.4160   15.4890   10.6170 C   0  0  0  0  0  3  0  0  0  0  0  0
   18.6560   15.7770   10.3230 C   0  0  0  0  0  3  0  0  0  0  0  0
   20.8900   16.1230    9.4870 C   0  0  0  0  0  3  0  0  0  0  0  0
   19.5090   16.2650    9.3400 C   0  0  0  0  0  3  0  0  0  0  0  0
   22.9560   12.6670   12.8770 C   0  0  0  0  0  0  0  0  0  0  0  0
   24.1470   13.2150   11.8180 S   0  0  0  0  0  0  0  0  0  0  0  0
   23.1700   11.9790   14.0740 N   0  0  0  0  0  0  0  0  0  0  0  0
   22.4100   12.1100   14.7230 H   0  0  0  0  0  0  0  0  0  0  0  0
   24.3050   11.3460   14.6410 C   0  0  0  0  0  0  0  0  0  0  0  0
   25.2980   12.0350   15.3330 C   0  0  0  0  0  3  0  0  0  0  0  0
   24.4640    9.9520   14.4450 C   0  0  0  0  0  0  0  0  0  0  0  0
   26.3940   11.3670   15.8920 C   0  0  0  0  0  3  0  0  0  0  0  0
   25.5690    9.2940   15.0200 C   0  0  0  0  0  3  0  0  0  0  0  0
   26.5220    9.9980   15.7490 C   0  0  0  0  0  3  0  0  0  0  0  0
   23.4810    9.1260   13.6450 C   0  0  0  0  0  1  0  0  0  0  0  0
  1  2  1  0
  1  9  1  0
  1 16  1  0
  2  3  1  0
  3  7  2  0
  4  5  2  0
  6  3  1  0
  6  4  1  0
  7  5  1  0
  8  4  1  0
 10  9  1  0
 11 10  2  0
 12 10  1  0
 13 11  1  0
 14 12  2  0
 15 14  1  0
 15 13  2  0
 16 18  1  0
 17 16  2  0
 18 20  1  0
 18 19  1  0
 20 21  2  0
 21 23  1  0
 22 20  1  0
 22 24  2  0
 24 25  1  0
 25 23  2  0
 26 22  1  0
M  RAD  8   2   3   5   2   7   2   8   2   9   3  11   2  12   2  13   2
M  RAD  7  14   2  15   2  21   2  23   2  24   2  25   2  26   2
M  END
>  <vina_score>  (4) 
-6.9900000000000002

>  <pose_id>  (4) 
4

$$$$

     RDKit          3D

 26 28  0  0  0  0  0  0  0  0999 V2000
   19.7240   13.2730   14.2500 N   0  0  0  0  0  0  0  0  0  0  0  0
   18.5790   13.1580   15.1740 C   0  0  0  0  0  2  0  0  0  0  0  0
   17.3950   13.9670   14.7520 C   0  0  0  0  0  0  0  0  0  0  0  0
   15.7160   14.3610   13.3890 C   0  0  0  0  0  0  0  0  0  0  0  0
   15.6560   15.3340   14.3600 C   0  0  0  0  0  3  0  0  0  0  0  0
   16.7710   13.5330   13.6180 O   0  0  0  0  0  0  0  0  0  0  0  0
   16.7400   15.0850   15.2330 C   0  0  0  0  0  3  0  0  0  0  0  0
   14.8960   14.0620   12.2080 C   0  0  0  0  0  1  0  0  0  0  0  0
   20.1410   14.6540   13.9570 C   0  0  0  0  0  2  0  0  0  0  0  0
   20.2220   15.0160   12.4890 C   0  0  0  0  0  0  0  0  0  0  0  0
   19.0220   15.2820   11.8040 C   0  0  0  0  0  3  0  0  0  0  0  0
   21.4290   15.1370   11.7840 C   0  0  0  0  0  3  0  0  0  0  0  0
   19.0290   15.6460   10.4550 C   0  0  0  0  0  3  0  0  0  0  0  0
   21.4340   15.4930   10.4320 C   0  0  0  0  0  3  0  0  0  0  0  0
   20.2340   15.7460    9.7670 C   0  0  0  0  0  3  0  0  0  0  0  0
   20.6530   12.2140   14.0460 C   0  0  0  0  0  0  0  0  0  0  0  0
   20.3370   10.8800   13.0660 S   0  0  0  0  0  0  0  0  0  0  0  0
   21.8550   12.4880   14.7030 N   0  0  0  0  0  0  0  0  0  0  0  0
   21.9730   13.4740   14.8740 H   0  0  0  0  0  0  0  0  0  0  0  0
   23.0180   11.7190   14.9620 C   0  0  0  0  0  0  0  0  0  0  0  0
   23.1430   10.8670   16.0570 C   0  0  0  0  0  3  0  0  0  0  0  0
   24.1290   11.8690   14.0950 C   0  0  0  0  0  0  0  0  0  0  0  0
   24.3050   10.1140   16.2650 C   0  0  0  0  0  3  0  0  0  0  0  0
   25.2870   11.1000   14.3140 C   0  0  0  0  0  3  0  0  0  0  0  0
   25.3690   10.2180   15.3870 C   0  0  0  0  0  3  0  0  0  0  0  0
   24.1200   12.8240   12.9210 C   0  0  0  0  0  1  0  0  0  0  0  0
  1  2  1  0
  3  2  1  0
  3  7  2  0
  4  6  1  0
  4  5  2  0
  5  7  1  0
  6  3  1  0
  8  4  1  0
  9  1  1  0
 10  9  1  0
 11 10  2  0
 12 10  1  0
 13 11  1  0
 14 12  2  0
 15 14  1  0
 15 13  2  0
 16  1  1  0
 16 18  1  0
 17 16  2  0
 18 19  1  0
 18 20  1  0
 20 21  2  0
 21 23  1  0
 22 24  2  0
 22 20  1  0
 24 25  1  0
 25 23  2  0
 26 22  1  0
M  RAD  8   2   3   5   2   7   2   8   2   9   3  11   2  12   2  13   2
M  RAD  7  14   2  15   2  21   2  23   2  24   2  25   2  26   2
M  END
>  <vina_score>  (5) 
-6.9550000000000001

>  <pose_id>  (5) 
5

$$$$
