
     RDKit          3D

 21 22  0  0  1  0  0  0  0  0999 V2000
   18.9670   14.3500   14.6750 C   0  0  0  0  0  2  0  0  0  0  0  0
   19.6720   14.0500   13.3610 C   0  0  0  0  0  0  0  0  0  0  0  0
   20.6100   15.0020   13.0120 N   0  0  0  0  0  0  0  0  0  0  0  0
   19.3310   13.0780   12.6930 O   0  0  0  0  0  0  0  0  0  0  0  0
   20.7190   15.7470   13.6990 H   0  0  0  0  0  0  0  0  0  0  0  0
   21.4490   15.0400   11.8750 C   0  0  0  0  0  0  0  0  0  0  0  0
   22.6020   14.2150   11.8370 C   0  0  0  0  0  0  0  0  0  0  0  0
   23.3730   14.1900   10.6550 C   0  0  0  0  0  0  0  0  0  0  0  0
   23.0510   14.9970    9.5630 C   0  0  0  0  0  3  0  0  0  0  0  0
   21.1510   15.8540   10.7720 C   0  0  0  0  0  3  0  0  0  0  0  0
   21.9470   15.8390    9.6270 C   0  0  0  0  0  3  0  0  0  0  0  0
   22.9840   13.3530   13.0170 C   0  0  0  0  0  1  0  0  0  0  0  0
   24.7500   13.1560   10.4720 Cl  0  0  0  0  0  0  0  0  0  0  0  0
   18.2810   15.7190   14.7000 C   0  0  0  0  0  2  0  0  0  0  0  0
   16.8640   15.6610   14.2720 N   0  0  0  0  0  0  0  0  0  0  0  0
   16.3690   14.2740   14.3830 C   0  0  0  0  0  2  0  0  0  0  0  0
   16.6550   16.2410   12.9270 C   0  0  0  0  0  2  0  0  0  0  0  0
   15.0690   14.0620   13.6110 C   0  0  0  0  0  2  0  0  0  0  0  0
   16.4700   15.1990   11.8140 C   0  0  0  0  0  3  0  0  0  0  0  0
   15.2600   14.3020   12.1130 C   0  0  0  0  0  2  0  0  0  0  0  0
   16.3260   15.8660   10.4470 C   0  0  0  0  0  1  0  0  0  0  0  0
  1 14  1  0
  2  1  1  0
  3  2  1  0
  3  5  1  0
  4  2  2  0
  6  3  1  0
  7  6  1  0
  7 12  1  0
  8  7  2  0
  9 11  2  0
  9  8  1  0
 10  6  2  0
 11 10  1  0
 13  8  1  0
 15 16  1  0
 15 14  1  0
 17 15  1  0
 18 16  1  0
 19 21  1  0
 19 20  1  0
 19 17  1  0
 20 18  1  0
M  RAD  8   1   3   9   2  10   2  11   2  12   2  14   3  16   3  17   3
M  RAD  4  18   3  19   2  20   3  21   2
M  END
>  <vina_score>  (1) 
-6.7610000000000001

>  <pose_id>  (1) 
1

$$$$

     RDKit          3D

 21 22  0  0  1  0  0  0  0  0999 V2000
   19.0790   13.6120   14.6330 C   0  0  0  0  0  2  0  0  0  0  0  0
   19.9520   12.9730   13.5630 C   0  0  0  0  0  0  0  0  0  0  0  0
   21.2190   13.5180   13.4930 N   0  0  0  0  0  0  0  0  0  0  0  0
   19.4810   12.1160   12.8220 O   0  0  0  0  0  0  0  0  0  0  0  0
   21.3980   14.2430   14.1880 H   0  0  0  0  0  0  0  0  0  0  0  0
   22.2850   13.1670   12.6320 C   0  0  0  0  0  0  0  0  0  0  0  0
   22.5360   13.9580   11.4820 C   0  0  0  0  0  0  0  0  0  0  0  0
   23.6630   13.6540   10.6890 C   0  0  0  0  0  0  0  0  0  0  0  0
   24.4860   12.5680   10.9870 C   0  0  0  0  0  3  0  0  0  0  0  0
   23.1160   12.0710   12.9060 C   0  0  0  0  0  3  0  0  0  0  0  0
   24.2050   11.7690   12.0890 C   0  0  0  0  0  3  0  0  0  0  0  0
   21.6420   15.1230   11.1250 C   0  0  0  0  0  1  0  0  0  0  0  0
   24.1080   14.6060    9.3130 Cl  0  0  0  0  0  0  0  0  0  0  0  0
   18.8180   15.1020   14.3980 C   0  0  0  0  0  2  0  0  0  0  0  0
   17.4050   15.3950   14.0650 N   0  0  0  0  0  0  0  0  0  0  0  0
   16.6190   14.1450   14.1010 C   0  0  0  0  0  2  0  0  0  0  0  0
   17.2650   16.1260   12.7860 C   0  0  0  0  0  2  0  0  0  0  0  0
   15.2670   14.2930   13.4050 C   0  0  0  0  0  2  0  0  0  0  0  0
   16.7960   15.2560   11.6110 C   0  0  0  0  0  3  0  0  0  0  0  0
   15.4330   14.6210   11.9210 C   0  0  0  0  0  2  0  0  0  0  0  0
   16.7370   16.0600   10.3130 C   0  0  0  0  0  1  0  0  0  0  0  0
  2  1  1  0
  3  2  1  0
  3  5  1  0
  4  2  2  0
  6 10  2  0
  6  3  1  0
  7  6  1  0
  8  9  1  0
  8  7  2  0
  9 11  2  0
 11 10  1  0
 12  7  1  0
 13  8  1  0
 14  1  1  0
 15 16  1  0
 15 14  1  0
 17 15  1  0
 18 16  1  0
 19 21  1  0
 19 20  1  0
 19 17  1  0
 20 18  1  0
M  RAD  8   1   3   9   2  10   2  11   2  12   2  14   3  16   3  17   3
M  RAD  4  18   3  19   2  20   3  21   2
M  END
>  <vina_score>  (2) 
-6.3849999999999998

>  <pose_id>  (2) 
2

$$$$

     RDKit          3D

 21 22  0  0  1  0  0  0  0  0999 V2000
   20.9210   12.8460   14.0080 C   0  0  0  0  0  2  0  0  0  0  0  0
   19.5970   12.8140   13.2600 C   0  0  0  0  0  0  0  0  0  0  0  0
   18.8850   13.9930   13.3560 N   0  0  0  0  0  0  0  0  0  0  0  0
   19.2290   11.7780   12.7130 O   0  0  0  0  0  0  0  0  0  0  0  0
   19.3620   14.7240   13.8820 H   0  0  0  0  0  0  0  0  0  0  0  0
   17.6320   14.3170   12.7850 C   0  0  0  0  0  0  0  0  0  0  0  0
   17.5870   15.1690   11.6520 C   0  0  0  0  0  0  0  0  0  0  0  0
   16.3390   15.4020   11.0350 C   0  0  0  0  0  0  0  0  0  0  0  0
   15.1630   14.8580   11.5520 C   0  0  0  0  0  3  0  0  0  0  0  0
   16.4370   13.7920   13.2970 C   0  0  0  0  0  3  0  0  0  0  0  0
   15.2110   14.0630   12.6910 C   0  0  0  0  0  3  0  0  0  0  0  0
   18.8440   15.7910   11.0920 C   0  0  0  0  0  1  0  0  0  0  0  0
   16.1830   16.3570    9.5990 Cl  0  0  0  0  0  0  0  0  0  0  0  0
   21.8120   14.0290   13.6200 C   0  0  0  0  0  2  0  0  0  0  0  0
   23.1450   13.6100   13.1290 N   0  0  0  0  0  0  0  0  0  0  0  0
   23.2400   13.8660   11.6760 C   0  0  0  0  0  2  0  0  0  0  0  0
   23.4670   12.2120   13.4890 C   0  0  0  0  0  2  0  0  0  0  0  0
   24.4080   13.1210   11.0350 C   0  0  0  0  0  2  0  0  0  0  0  0
   23.3260   11.2140   12.3310 C   0  0  0  0  0  3  0  0  0  0  0  0
   24.2480   11.6060   11.1670 C   0  0  0  0  0  2  0  0  0  0  0  0
   23.6100    9.7850   12.7910 C   0  0  0  0  0  1  0  0  0  0  0  0
  2  3  1  0
  2  1  1  0
  3  5  1  0
  4  2  2  0
  6 10  2  0
  6  3  1  0
  7  6  1  0
  8  9  1  0
  8  7  2  0
  9 11  2  0
 11 10  1  0
 12  7  1  0
 13  8  1  0
 14  1  1  0
 15 17  1  0
 15 14  1  0
 16 15  1  0
 18 20  1  0
 18 16  1  0
 19 21  1  0
 19 17  1  0
 20 19  1  0
M  RAD  8   1   3   9   2  10   2  11   2  12   2  14   3  16   3  17   3
M  RAD  4  18   3  19   2  20   3  21   2
M  END
>  <vina_score>  (3) 
-6.3079999999999998

>  <pose_id>  (3) 
3

$$$$

     RDKit          3D

 21 22  0  0  1  0  0  0  0  0999 V2000
   22.2970   14.7970   12.3520 C   0  0  0  0  0  2  0  0  0  0  0  0
   20.8750   14.3080   12.5800 C   0  0  0  0  0  0  0  0  0  0  0  0
   19.9680   15.3310   12.7720 N   0  0  0  0  0  0  0  0  0  0  0  0
   20.6470   13.1040   12.6510 O   0  0  0  0  0  0  0  0  0  0  0  0
   20.3740   16.2640   12.6990 H   0  0  0  0  0  0  0  0  0  0  0  0
   18.5750   15.2450   13.0000 C   0  0  0  0  0  0  0  0  0  0  0  0
   17.6830   15.4230   11.9120 C   0  0  0  0  0  0  0  0  0  0  0  0
   16.3020   15.2350   12.1360 C   0  0  0  0  0  0  0  0  0  0  0  0
   15.8090   14.9370   13.4070 C   0  0  0  0  0  3  0  0  0  0  0  0
   18.0580   14.9600   14.2720 C   0  0  0  0  0  3  0  0  0  0  0  0
   16.6870   14.8120   14.4780 C   0  0  0  0  0  3  0  0  0  0  0  0
   18.1920   15.7710   10.5330 C   0  0  0  0  0  1  0  0  0  0  0  0
   15.1360   15.3450   10.8610 Cl  0  0  0  0  0  0  0  0  0  0  0  0
   22.9750   14.1570   11.1370 C   0  0  0  0  0  2  0  0  0  0  0  0
   24.0710   13.2320   11.5090 N   0  0  0  0  0  0  0  0  0  0  0  0
   23.7150   11.8550   11.1080 C   0  0  0  0  0  2  0  0  0  0  0  0
   24.4390   13.3370   12.9390 C   0  0  0  0  0  2  0  0  0  0  0  0
   24.5970   10.8100   11.7880 C   0  0  0  0  0  2  0  0  0  0  0  0
   23.9060   12.1930   13.8120 C   0  0  0  0  0  3  0  0  0  0  0  0
   24.4310   10.8410   13.3080 C   0  0  0  0  0  2  0  0  0  0  0  0
   24.2690   12.4010   15.2820 C   0  0  0  0  0  1  0  0  0  0  0  0
  1  2  1  0
  2  4  2  0
  2  3  1  0
  3  6  1  0
  5  3  1  0
  6 10  2  0
  7  8  2  0
  7  6  1  0
  8  9  1  0
  9 11  2  0
 10 11  1  0
 12  7  1  0
 13  8  1  0
 14 15  1  0
 14  1  1  0
 15 17  1  0
 16 15  1  0
 16 18  1  0
 17 19  1  0
 18 20  1  0
 19 21  1  0
 20 19  1  0
M  RAD  8   1   3   9   2  10   2  11   2  12   2  14   3  16   3  17   3
M  RAD  4  18   3  19   2  20   3  21   2
M  END
>  <vina_score>  (4) 
-6.2329999999999997

>  <pose_id>  (4) 
4

$$$$

     RDKit          3D

 21 22  0  0  1  0  0  0  0  0999 V2000
   16.5360   12.6130   17.0110 C   0  0  0  0  0  2  0  0  0  0  0  0
   16.9080   13.6890   16.0020 C   0  0  0  0  0  0  0  0  0  0  0  0
   17.1950   13.1880   14.7480 N   0  0  0  0  0  0  0  0  0  0  0  0
   16.9990   14.8590   16.3630 O   0  0  0  0  0  0  0  0  0  0  0  0
   17.0830   12.1780   14.6690 H   0  0  0  0  0  0  0  0  0  0  0  0
   17.5650   13.8930   13.5790 C   0  0  0  0  0  0  0  0  0  0  0  0
   16.5530   14.3610   12.7030 C   0  0  0  0  0  0  0  0  0  0  0  0
   16.9340   15.1480   11.5940 C   0  0  0  0  0  0  0  0  0  0  0  0
   18.2760   15.4180   11.3250 C   0  0  0  0  0  3  0  0  0  0  0  0
   18.9090   14.1630   13.2830 C   0  0  0  0  0  3  0  0  0  0  0  0
   19.2650   14.9150   12.1630 C   0  0  0  0  0  3  0  0  0  0  0  0
   15.0960   14.0580   12.9600 C   0  0  0  0  0  1  0  0  0  0  0  0
   15.7740   15.8390   10.5110 Cl  0  0  0  0  0  0  0  0  0  0  0  0
   17.7490   11.9220   17.6410 C   0  0  0  0  0  2  0  0  0  0  0  0
   17.3730   10.9060   18.6510 N   0  0  0  0  0  0  0  0  0  0  0  0
   16.0440   11.2300   19.2090 C   0  0  0  0  0  2  0  0  0  0  0  0
   18.4080   10.7350   19.6940 C   0  0  0  0  0  2  0  0  0  0  0  0
   15.7610   10.4720   20.5040 C   0  0  0  0  0  2  0  0  0  0  0  0
   18.0710   11.4050   21.0330 C   0  0  0  0  0  3  0  0  0  0  0  0
   16.7590   10.8430   21.6010 C   0  0  0  0  0  2  0  0  0  0  0  0
   19.2100   11.2430   22.0380 C   0  0  0  0  0  1  0  0  0  0  0  0
  1 14  1  0
  2  4  2  0
  2  1  1  0
  3  2  1  0
  5  3  1  0
  6  3  1  0
  7 12  1  0
  7  6  1  0
  8  7  2  0
  9  8  1  0
  9 11  2  0
 10  6  2  0
 11 10  1  0
 13  8  1  0
 14 15  1  0
 15 16  1  0
 15 17  1  0
 16 18  1  0
 17 19  1  0
 18 20  1  0
 19 20  1  0
 19 21  1  0
M  RAD  8   1   3   9   2  10   2  11   2  12   2  14   3  16   3  17   3
M  RAD  4  18   3  19   2  20   3  21   2
M  END
>  <vina_score>  (5) 
-6.1900000000000004

>  <pose_id>  (5) 
5

$$$$
