
     RDKit          3D

 36 38  0  0  1  0  0  0  0  0999 V2000
   20.4800   13.5390   12.6870 O   0  0  0  0  0  0  0  0  0  0  0  0
   21.2440   12.3640   12.9560 C   0  0  0  0  0  3  0  0  0  0  0  0
   22.7880   10.6050   14.4920 C   0  0  0  0  0  0  0  0  0  0  0  0
   21.4690   10.7530   14.6870 C   0  0  0  0  0  3  0  0  0  0  0  0
   23.5480   11.5660   13.6320 C   0  0  1  0  0  0  0  0  0  0  0  0
   20.6860   11.7100   14.1090 O   0  0  0  0  0  0  0  0  0  0  0  0
   24.0760   10.9400   12.3230 C   0  0  0  0  0  2  0  0  0  0  0  0
   22.7000   12.7870   13.2000 C   0  0  0  0  0  3  0  0  0  0  0  0
   23.8420   11.9870   11.2280 C   0  0  0  0  0  3  0  0  0  0  0  0
   23.4730   13.2910   11.9620 C   0  0  1  0  0  0  0  0  0  0  0  0
   22.7690   14.2860   11.0500 C   0  0  0  0  0  1  0  0  0  0  0  0
   23.4260    9.4420   15.1540 C   0  0  0  0  0  0  0  0  0  0  0  0
   23.1400    8.2760   14.9250 O   0  0  0  0  0  0  0  0  0  0  0  0
   24.3750    9.8650   16.0290 O   0  0  0  0  0  0  0  0  0  0  0  0
   25.5750    9.0880   16.0010 C   0  0  0  0  0  1  0  0  0  0  0  0
   24.6740   12.1100   14.3480 O   0  0  0  0  0  0  0  0  0  0  0  0
   25.0910   11.3720   14.8370 H   0  0  0  0  0  0  0  0  0  0  0  0
   25.0060   12.1450   10.4260 O   0  0  0  0  0  0  0  0  0  0  0  0
   24.9920   11.3940    9.7950 H   0  0  0  0  0  0  0  0  0  0  0  0
   24.7090   13.9300   12.3610 O   0  0  0  0  0  0  0  0  0  0  0  0
   25.3970   13.7020   11.6950 H   0  0  0  0  0  0  0  0  0  0  0  0
   19.4280   13.7290   13.6360 C   0  0  0  0  0  3  0  0  0  0  0  0
   18.1750   13.6650   12.9500 O   0  0  0  0  0  0  0  0  0  0  0  0
   19.6130   15.1300   14.2860 C   0  0  0  0  0  3  0  0  0  0  0  0
   17.0610   13.6630   13.8670 C   0  0  0  0  0  3  0  0  0  0  0  0
   18.2470   15.7930   14.5630 C   0  0  0  0  0  3  0  0  0  0  0  0
   17.2310   14.7220   14.9880 C   0  0  0  0  0  3  0  0  0  0  0  0
   20.3490   15.0060   15.5200 O   0  0  0  0  0  0  0  0  0  0  0  0
   21.2170   14.6160   15.2820 H   0  0  0  0  0  0  0  0  0  0  0  0
   15.7910   13.9170   13.0410 C   0  0  0  0  0  2  0  0  0  0  0  0
   15.0930   15.0530   13.5320 O   0  0  0  0  0  0  0  0  0  0  0  0
   14.6990   15.5150   12.7620 H   0  0  0  0  0  0  0  0  0  0  0  0
   17.7630   16.5140   13.4220 O   0  0  0  0  0  0  0  0  0  0  0  0
   18.4780   17.1070   13.1240 H   0  0  0  0  0  0  0  0  0  0  0  0
   17.7440   14.0720   16.1710 O   0  0  0  0  0  0  0  0  0  0  0  0
   17.5110   13.1260   16.0920 H   0  0  0  0  0  0  0  0  0  0  0  0
  1 22  1  0
  2  1  1  0
  2  8  1  0
  2  6  1  1
  3  4  2  0
  3 12  1  0
  5 16  1  1
  5  3  1  0
  6  4  1  0
  7  5  1  0
  8  5  1  0
  9 10  1  0
  9  7  1  0
 10 20  1  0
  8 10  1  0
 10 11  1  6
 12 14  1  0
 13 12  2  0
 15 14  1  0
 16 17  1  0
 18  9  1  0
 19 18  1  0
 21 20  1  0
 22 24  1  0
 23 22  1  0
 23 25  1  0
 24 26  1  0
 24 28  1  0
 25 27  1  0
 26 27  1  0
 27 35  1  0
 29 28  1  0
 30 31  1  0
 30 25  1  0
 32 31  1  0
 33 26  1  0
 34 33  1  0
 36 35  1  0
M  END
>  <vina_score>  (1) 
-6.6970000000000001

>  <pose_id>  (1) 
1

$$$$

     RDKit          3D

 36 38  0  0  1  0  0  0  0  0999 V2000
   22.0210   11.2650   12.5080 O   0  0  0  0  0  0  0  0  0  0  0  0
   20.8170   11.5780   13.2050 C   0  0  0  0  0  3  0  0  0  0  0  0
   18.0710   12.0360   13.5040 C   0  0  0  0  0  0  0  0  0  0  0  0
   18.5710   10.8090   13.2990 C   0  0  0  0  0  3  0  0  0  0  0  0
   18.9230   13.2520   13.3120 C   0  0  1  0  0  0  0  0  0  0  0  0
   19.8650   10.5250   12.9680 O   0  0  0  0  0  0  0  0  0  0  0  0
   19.2260   14.0080   14.6230 C   0  0  0  0  0  2  0  0  0  0  0  0
   20.3010   12.9280   12.6870 C   0  0  0  0  0  3  0  0  0  0  0  0
   20.7010   14.4190   14.5450 C   0  0  0  0  0  3  0  0  0  0  0  0
   21.1330   14.1670   13.0870 C   0  0  1  0  0  0  0  0  0  0  0  0
   22.6450   14.0750   12.9420 C   0  0  0  0  0  1  0  0  0  0  0  0
   16.6560   12.1080   13.9410 C   0  0  0  0  0  0  0  0  0  0  0  0
   16.2390   11.6690   15.0020 O   0  0  0  0  0  0  0  0  0  0  0  0
   15.9080   12.7410   13.0000 O   0  0  0  0  0  0  0  0  0  0  0  0
   15.0790   13.7820   13.5250 C   0  0  0  0  0  1  0  0  0  0  0  0
   18.2930   14.1770   12.4030 O   0  0  0  0  0  0  0  0  0  0  0  0
   17.9840   14.9390   12.9320 H   0  0  0  0  0  0  0  0  0  0  0  0
   20.8640   15.7820   14.9140 O   0  0  0  0  0  0  0  0  0  0  0  0
   21.1850   15.7650   15.8420 H   0  0  0  0  0  0  0  0  0  0  0  0
   20.7320   15.3200   12.3100 O   0  0  0  0  0  0  0  0  0  0  0  0
   19.8470   15.1310   11.9220 H   0  0  0  0  0  0  0  0  0  0  0  0
   22.9180   10.4830   13.3010 C   0  0  0  0  0  3  0  0  0  0  0  0
   22.6200   10.7040   14.6820 O   0  0  0  0  0  0  0  0  0  0  0  0
   24.3690   10.9430   12.9850 C   0  0  0  0  0  3  0  0  0  0  0  0
   23.3570    9.8090   15.5410 C   0  0  0  0  0  3  0  0  0  0  0  0
   25.2490   10.9010   14.2530 C   0  0  0  0  0  3  0  0  0  0  0  0
   24.8460    9.6980   15.1190 C   0  0  0  0  0  3  0  0  0  0  0  0
   24.9430   10.0950   11.9700 O   0  0  0  0  0  0  0  0  0  0  0  0
   25.0680   10.6610   11.1790 H   0  0  0  0  0  0  0  0  0  0  0  0
   23.2160   10.3360   16.9760 C   0  0  0  0  0  2  0  0  0  0  0  0
   24.4940   10.5940   17.5430 O   0  0  0  0  0  0  0  0  0  0  0  0
   24.9640    9.7370   17.6160 H   0  0  0  0  0  0  0  0  0  0  0  0
   25.1520   12.1150   15.0090 O   0  0  0  0  0  0  0  0  0  0  0  0
   25.9610   12.1920   15.5480 H   0  0  0  0  0  0  0  0  0  0  0  0
   25.0190    8.5040   14.3250 O   0  0  0  0  0  0  0  0  0  0  0  0
   24.1930    7.9890   14.4130 H   0  0  0  0  0  0  0  0  0  0  0  0
  1 22  1  0
  2  1  1  0
  3 12  1  0
  4  3  2  0
  5 16  1  6
  5  3  1  0
  5  7  1  0
  2  6  1  0
  6  4  1  1
  8 10  1  1
  2  8  1  0
  8  5  1  0
  9  7  1  0
  9 18  1  0
 10  9  1  0
 10 11  1  1
 12 13  2  0
 14 15  1  0
 14 12  1  0
 16 17  1  0
 18 19  1  0
 20 10  1  0
 21 20  1  0
 22 23  1  0
 23 25  1  0
 24 22  1  0
 24 26  1  0
 25 30  1  0
 26 33  1  0
 26 27  1  0
 27 25  1  0
 28 24  1  0
 29 28  1  0
 30 31  1  0
 31 32  1  0
 33 34  1  0
 35 36  1  0
 35 27  1  0
M  END
>  <vina_score>  (2) 
-6.6760000000000002

>  <pose_id>  (2) 
2

$$$$

     RDKit          3D

 36 38  0  0  1  0  0  0  0  0999 V2000
   20.7230   11.8050   13.7930 O   0  0  0  0  0  0  0  0  0  0  0  0
   19.4330   12.4070   13.6930 C   0  0  0  0  0  3  0  0  0  0  0  0
   17.5820   14.5050   13.5920 C   0  0  0  0  0  0  0  0  0  0  0  0
   18.4110   14.2360   12.5730 C   0  0  0  0  0  3  0  0  0  0  0  0
   17.7880   13.8750   14.9350 C   0  0  1  0  0  0  0  0  0  0  0  0
   19.4540   13.3550   12.6120 O   0  0  0  0  0  0  0  0  0  0  0  0
   16.6810   12.8720   15.3240 C   0  0  0  0  0  2  0  0  0  0  0  0
   19.1180   13.0890   15.0320 C   0  0  0  0  0  3  0  0  0  0  0  0
   17.3960   11.6820   15.9740 C   0  0  0  0  0  3  0  0  0  0  0  0
   18.8450   12.1450   16.2240 C   0  0  1  0  0  0  0  0  0  0  0  0
   19.7960   10.9740   16.4250 C   0  0  0  0  0  1  0  0  0  0  0  0
   16.4620   15.4320   13.3050 C   0  0  0  0  0  0  0  0  0  0  0  0
   16.0760   16.3050   14.0670 O   0  0  0  0  0  0  0  0  0  0  0  0
   15.9460   15.1750   12.0740 O   0  0  0  0  0  0  0  0  0  0  0  0
   14.8580   14.2470   12.0850 C   0  0  0  0  0  1  0  0  0  0  0  0
   17.8560   14.8810   15.9650 O   0  0  0  0  0  0  0  0  0  0  0  0
   16.9480   15.0060   16.3080 H   0  0  0  0  0  0  0  0  0  0  0  0
   16.7490   11.3050   17.1830 O   0  0  0  0  0  0  0  0  0  0  0  0
   16.5170   10.3580   17.0710 H   0  0  0  0  0  0  0  0  0  0  0  0
   18.8580   12.8820   17.4690 O   0  0  0  0  0  0  0  0  0  0  0  0
   17.9620   12.8150   17.8700 H   0  0  0  0  0  0  0  0  0  0  0  0
   21.6590   12.3780   12.8770 C   0  0  0  0  0  3  0  0  0  0  0  0
   22.4810   11.3330   12.3500 O   0  0  0  0  0  0  0  0  0  0  0  0
   22.5310   13.4040   13.6560 C   0  0  0  0  0  3  0  0  0  0  0  0
   23.3270   11.8030   11.2800 C   0  0  0  0  0  3  0  0  0  0  0  0
   23.9870   13.3910   13.1430 C   0  0  0  0  0  3  0  0  0  0  0  0
   23.9960   13.1600   11.6240 C   0  0  0  0  0  3  0  0  0  0  0  0
   21.9780   14.7280   13.5110 O   0  0  0  0  0  0  0  0  0  0  0  0
   21.2710   14.8040   14.1860 H   0  0  0  0  0  0  0  0  0  0  0  0
   24.3740   10.7120   11.0130 C   0  0  0  0  0  2  0  0  0  0  0  0
   24.7670   10.0880   12.2280 O   0  0  0  0  0  0  0  0  0  0  0  0
   25.3150    9.3090   11.9980 H   0  0  0  0  0  0  0  0  0  0  0  0
   24.7760   12.3940   13.8040 O   0  0  0  0  0  0  0  0  0  0  0  0
   25.7090   12.6760   13.7560 H   0  0  0  0  0  0  0  0  0  0  0  0
   23.2360   14.2250   11.0110 O   0  0  0  0  0  0  0  0  0  0  0  0
   22.3320   14.1680   11.3780 H   0  0  0  0  0  0  0  0  0  0  0  0
  2  1  1  0
  2  8  1  1
  3  5  1  0
  6  4  1  0
  4  3  2  0
  8  5  1  0
  5  7  1  0
  5 16  1  1
  2  6  1  0
  7  9  1  0
  8 10  1  1
  9 10  1  0
  9 18  1  0
 10 11  1  1
 10 20  1  0
 12  3  1  0
 12 13  2  0
 14 15  1  0
 14 12  1  0
 16 17  1  0
 19 18  1  0
 20 21  1  0
 22 24  1  0
 22  1  1  0
 23 22  1  0
 25 27  1  0
 25 23  1  0
 26 24  1  0
 26 33  1  0
 27 26  1  0
 28 24  1  0
 28 29  1  0
 30 25  1  0
 30 31  1  0
 32 31  1  0
 34 33  1  0
 35 36  1  0
 35 27  1  0
M  END
>  <vina_score>  (3) 
-6.5700000000000003

>  <pose_id>  (3) 
3

$$$$

     RDKit          3D

 36 38  0  0  1  0  0  0  0  0999 V2000
   22.8550    8.3350   16.4480 O   0  0  0  0  0  0  0  0  0  0  0  0
   22.0410    9.2350   17.1980 C   0  0  0  0  0  3  0  0  0  0  0  0
   20.9240   10.3720   19.5000 C   0  0  0  0  0  0  0  0  0  0  0  0
   22.2090   10.5590   19.1640 C   0  0  0  0  0  3  0  0  0  0  0  0
   20.0960    9.3310   18.8130 C   0  0  1  0  0  0  0  0  0  0  0  0
   22.8710    9.9010   18.1670 O   0  0  0  0  0  0  0  0  0  0  0  0
   18.9690    9.9160   17.9360 C   0  0  0  0  0  2  0  0  0  0  0  0
   20.9280    8.4230   17.8750 C   0  0  0  0  0  3  0  0  0  0  0  0
   18.9500    9.0770   16.6530 C   0  0  0  0  0  3  0  0  0  0  0  0
   19.8420    7.8520   16.9370 C   0  0  1  0  0  0  0  0  0  0  0  0
   20.3060    7.1700   15.6580 C   0  0  0  0  0  1  0  0  0  0  0  0
   20.3840   11.2580   20.5580 C   0  0  0  0  0  0  0  0  0  0  0  0
   20.1690   12.4520   20.4160 O   0  0  0  0  0  0  0  0  0  0  0  0
   20.1520   10.5450   21.6910 O   0  0  0  0  0  0  0  0  0  0  0  0
   18.9990   10.9740   22.4200 C   0  0  0  0  0  1  0  0  0  0  0  0
   19.4930    8.4440   19.7760 O   0  0  0  0  0  0  0  0  0  0  0  0
   19.9920    7.6020   19.7480 H   0  0  0  0  0  0  0  0  0  0  0  0
   17.6210    8.6940   16.3220 O   0  0  0  0  0  0  0  0  0  0  0  0
   17.7110    7.8820   15.7780 H   0  0  0  0  0  0  0  0  0  0  0  0
   19.0320    6.8760   17.6330 O   0  0  0  0  0  0  0  0  0  0  0  0
   18.2950    7.3540   18.0770 H   0  0  0  0  0  0  0  0  0  0  0  0
   23.5930    9.0000   15.4200 C   0  0  0  0  0  3  0  0  0  0  0  0
   24.7770    9.5590   15.9960 O   0  0  0  0  0  0  0  0  0  0  0  0
   22.6960   10.1290   14.8360 C   0  0  0  0  0  3  0  0  0  0  0  0
   25.6660   10.0870   14.9890 C   0  0  0  0  0  3  0  0  0  0  0  0
   23.5410   11.3680   14.4670 C   0  0  0  0  0  3  0  0  0  0  0  0
   24.9050   10.9180   13.9220 C   0  0  0  0  0  3  0  0  0  0  0  0
   22.0040    9.6500   13.6650 O   0  0  0  0  0  0  0  0  0  0  0  0
   22.0600   10.3700   13.0020 H   0  0  0  0  0  0  0  0  0  0  0  0
   26.7230   10.9330   15.7130 C   0  0  0  0  0  2  0  0  0  0  0  0
   26.1540   11.5910   16.8360 O   0  0  0  0  0  0  0  0  0  0  0  0
   25.2040   11.7400   16.6440 H   0  0  0  0  0  0  0  0  0  0  0  0
   23.7160   12.2460   15.5870 O   0  0  0  0  0  0  0  0  0  0  0  0
   24.2770   12.9880   15.2950 H   0  0  0  0  0  0  0  0  0  0  0  0
   24.6660   10.0870   12.7650 O   0  0  0  0  0  0  0  0  0  0  0  0
   24.7570    9.1610   13.0640 H   0  0  0  0  0  0  0  0  0  0  0  0
  2  1  1  0
  2  8  1  0
  2  6  1  1
  3 12  1  0
  4  3  2  0
  5  3  1  0
  5 16  1  1
  6  4  1  0
  7  5  1  0
  8  5  1  0
  9 10  1  0
  9  7  1  0
 10 20  1  0
  8 10  1  0
 10 11  1  6
 12 14  1  0
 13 12  2  0
 14 15  1  0
 17 16  1  0
 18  9  1  0
 19 18  1  0
 20 21  1  0
 22 23  1  0
 22  1  1  0
 24 22  1  0
 25 30  1  0
 25 23  1  0
 26 24  1  0
 26 33  1  0
 27 26  1  0
 27 25  1  0
 28 24  1  0
 29 28  1  0
 30 31  1  0
 32 31  1  0
 34 33  1  0
 35 36  1  0
 35 27  1  0
M  END
>  <vina_score>  (4) 
-6.4470000000000001

>  <pose_id>  (4) 
4

$$$$

     RDKit          3D

 36 38  0  0  1  0  0  0  0  0999 V2000
   18.4690   11.3620   17.7050 O   0  0  0  0  0  0  0  0  0  0  0  0
   18.8580   11.8420   16.4190 C   0  0  0  0  0  3  0  0  0  0  0  0
   18.5880   13.2570   14.0190 C   0  0  0  0  0  0  0  0  0  0  0  0
   18.7990   13.8740   15.1910 C   0  0  0  0  0  3  0  0  0  0  0  0
   18.2150   11.8080   13.9720 C   0  0  1  0  0  0  0  0  0  0  0  0
   18.7630   13.2770   16.4180 O   0  0  0  0  0  0  0  0  0  0  0  0
   19.3090   10.9090   13.3570 C   0  0  0  0  0  2  0  0  0  0  0  0
   17.9250   11.2160   15.3720 C   0  0  0  0  0  3  0  0  0  0  0  0
   19.3580    9.6460   14.2260 C   0  0  0  0  0  3  0  0  0  0  0  0
   18.1060    9.7030   15.1240 C   0  0  1  0  0  0  0  0  0  0  0  0
   18.2310    8.8000   16.3430 C   0  0  0  0  0  1  0  0  0  0  0  0
   18.7610   14.0810   12.7990 C   0  0  0  0  0  0  0  0  0  0  0  0
   19.8300   14.5360   12.4200 O   0  0  0  0  0  0  0  0  0  0  0  0
   17.5690   14.2380   12.1670 O   0  0  0  0  0  0  0  0  0  0  0  0
   17.3680   15.5460   11.6270 C   0  0  0  0  0  1  0  0  0  0  0  0
   17.0050   11.6170   13.2120 O   0  0  0  0  0  0  0  0  0  0  0  0
   16.2550   11.8380   13.8010 H   0  0  0  0  0  0  0  0  0  0  0  0
   19.3710    8.4780   13.4160 O   0  0  0  0  0  0  0  0  0  0  0  0
   19.1620    7.7360   14.0230 H   0  0  0  0  0  0  0  0  0  0  0  0
   16.9970    9.1780   14.3570 O   0  0  0  0  0  0  0  0  0  0  0  0
   17.2500    8.2840   14.0310 H   0  0  0  0  0  0  0  0  0  0  0  0
   19.5480   11.3880   18.6420 C   0  0  0  0  0  3  0  0  0  0  0  0
   20.5650   10.4890   18.1930 O   0  0  0  0  0  0  0  0  0  0  0  0
   18.9990   10.9310   20.0230 C   0  0  0  0  0  3  0  0  0  0  0  0
   21.7660   10.5980   18.9870 C   0  0  0  0  0  3  0  0  0  0  0  0
   20.0500   10.0950   20.7850 C   0  0  0  0  0  3  0  0  0  0  0  0
   21.4540   10.6550   20.5050 C   0  0  0  0  0  3  0  0  0  0  0  0
   18.6330   12.0820   20.8110 O   0  0  0  0  0  0  0  0  0  0  0  0
   18.3240   11.7340   21.6740 H   0  0  0  0  0  0  0  0  0  0  0  0
   22.6520    9.3920   18.6390 C   0  0  0  0  0  2  0  0  0  0  0  0
   21.8550    8.2620   18.3160 O   0  0  0  0  0  0  0  0  0  0  0  0
   22.1400    7.5230   18.8930 H   0  0  0  0  0  0  0  0  0  0  0  0
   19.9870    8.7080   20.4300 O   0  0  0  0  0  0  0  0  0  0  0  0
   19.1980    8.3290   20.8600 H   0  0  0  0  0  0  0  0  0  0  0  0
   21.4730   12.0340   20.9350 O   0  0  0  0  0  0  0  0  0  0  0  0
   22.0570   12.5100   20.3130 H   0  0  0  0  0  0  0  0  0  0  0  0
  1 22  1  0
  2  1  1  0
  3  4  2  0
  6  4  1  6
  5 16  1  6
  5  3  1  0
  8  5  1  0
  2  6  1  6
  7  5  1  0
  7  9  1  0
  2  8  1  0
  9 10  1  0
  8 10  1  0
 10 11  1  1
 12  3  1  0
 13 12  2  0
 14 12  1  0
 15 14  1  0
 16 17  1  0
 18 19  1  0
 18  9  1  0
 20 10  1  0
 21 20  1  0
 22 24  1  0
 23 22  1  0
 23 25  1  0
 24 26  1  0
 24 28  1  0
 25 27  1  0
 27 26  1  0
 27 35  1  0
 28 29  1  0
 30 25  1  0
 31 30  1  0
 31 32  1  0
 33 26  1  0
 33 34  1  0
 36 35  1  0
M  END
>  <vina_score>  (5) 
-6.2850000000000001

>  <pose_id>  (5) 
5

$$$$
