
     RDKit          3D

 22 23  0  0  1  0  0  0  0  0999 V2000
   17.9550   13.3070   15.8150 C   0  0  0  0  0  0  0  0  0  0  0  0
   19.1270   13.6030   15.2230 C   0  0  0  0  0  0  0  0  0  0  0  0
   19.4720   14.8850   14.5190 C   0  0  0  0  0  1  0  0  0  0  0  0
   20.1160   12.6420   15.2150 N   0  0  0  0  0  0  0  0  0  0  0  0
   19.9690   11.3730   15.6840 C   0  0  0  0  0  0  0  0  0  0  0  0
   21.2040   10.2670   15.5930 S   0  0  0  0  0  0  0  0  0  0  0  0
   18.7630   11.0400   16.2060 N   0  0  0  0  0  0  0  0  0  0  0  0
   17.6850   11.9800   16.4550 C   0  0  0  0  0  3  0  0  0  0  0  0
   21.0130   12.8530   14.7880 H   0  0  0  0  0  0  0  0  0  0  0  0
   18.6690   10.0990   16.5660 H   0  0  0  0  0  0  0  0  0  0  0  0
   16.8110   14.2380   15.8710 C   0  0  0  0  0  0  0  0  0  0  0  0
   16.8390   15.3010   16.4740 O   0  0  0  0  0  0  0  0  0  0  0  0
   15.7900   13.7790   15.1050 O   0  0  0  0  0  0  0  0  0  0  0  0
   15.5720   14.5410   13.9170 C   0  0  0  0  0  1  0  0  0  0  0  0
   17.5650   12.0850   17.9530 C   0  0  0  0  0  3  0  0  0  0  0  0
   17.6200   11.0310   18.7850 C   0  0  0  0  0  3  0  0  0  0  0  0
   17.5030   11.1230   20.2460 C   0  0  0  0  0  0  0  0  0  0  0  0
   18.4690   11.7590   21.0380 C   0  0  0  0  0  3  0  0  0  0  0  0
   16.3580   10.6070   20.8660 C   0  0  0  0  0  3  0  0  0  0  0  0
   18.3050   11.8510   22.4220 C   0  0  0  0  0  3  0  0  0  0  0  0
   16.1940   10.6990   22.2510 C   0  0  0  0  0  3  0  0  0  0  0  0
   17.1690   11.3190   23.0280 C   0  0  0  0  0  3  0  0  0  0  0  0
  1 11  1  0
  1  8  1  0
  2  1  2  0
  3  2  1  0
  4  2  1  0
  4  5  1  0
  5  7  1  0
  6  5  2  0
  7  8  1  0
  7 10  1  0
  8 15  1  0
  9  4  1  0
 11 12  2  0
 13 11  1  0
 14 13  1  0
 15 16  2  0
 16 17  1  0
 17 19  1  0
 17 18  2  0
 18 20  1  0
 19 21  2  0
 20 22  2  0
 21 22  1  0
M  RAD  8   3   2   8   2  14   2  15   2  16   2  18   2  19   2  20   2
M  RAD  2  21   2  22   2
M  END
>  <vina_score>  (1) 
-5.9589999999999996

>  <pose_id>  (1) 
1

$$$$

     RDKit          3D

 22 23  0  0  1  0  0  0  0  0999 V2000
   22.6760   13.4810   12.6180 C   0  0  0  0  0  0  0  0  0  0  0  0
   23.3250   13.3950   11.4420 C   0  0  0  0  0  0  0  0  0  0  0  0
   24.3750   12.3860   11.0740 C   0  0  0  0  0  1  0  0  0  0  0  0
   23.0460   14.3350   10.4730 N   0  0  0  0  0  0  0  0  0  0  0  0
   22.2240   15.4070   10.6440 C   0  0  0  0  0  0  0  0  0  0  0  0
   21.9810   16.5150    9.4310 S   0  0  0  0  0  0  0  0  0  0  0  0
   21.6310   15.5470   11.8540 N   0  0  0  0  0  0  0  0  0  0  0  0
   21.6740   14.5540   12.9130 C   0  0  0  0  0  3  0  0  0  0  0  0
   23.5130   14.2770    9.5730 H   0  0  0  0  0  0  0  0  0  0  0  0
   21.0100   16.3380   11.9670 H   0  0  0  0  0  0  0  0  0  0  0  0
   22.9010   12.5520   13.7440 C   0  0  0  0  0  0  0  0  0  0  0  0
   22.3970   11.4400   13.8080 O   0  0  0  0  0  0  0  0  0  0  0  0
   23.7900   13.0800   14.6220 O   0  0  0  0  0  0  0  0  0  0  0  0
   24.4920   12.1030   15.3910 C   0  0  0  0  0  1  0  0  0  0  0  0
   20.2740   14.0090   13.0270 C   0  0  0  0  0  3  0  0  0  0  0  0
   19.1660   14.7470   12.8460 C   0  0  0  0  0  3  0  0  0  0  0  0
   17.7970   14.2260   12.9560 C   0  0  0  0  0  0  0  0  0  0  0  0
   16.7240   14.7790   12.2440 C   0  0  0  0  0  3  0  0  0  0  0  0
   17.5650   13.1010   13.7570 C   0  0  0  0  0  3  0  0  0  0  0  0
   15.4420   14.2350   12.3540 C   0  0  0  0  0  3  0  0  0  0  0  0
   16.2820   12.5560   13.8670 C   0  0  0  0  0  3  0  0  0  0  0  0
   15.2210   13.1250   13.1670 C   0  0  0  0  0  3  0  0  0  0  0  0
  1  8  1  0
  1 11  1  0
  2  1  2  0
  3  2  1  0
  4  5  1  0
  4  2  1  0
  5  7  1  0
  6  5  2  0
  7 10  1  0
  7  8  1  0
  8 15  1  0
  9  4  1  0
 11 12  2  0
 11 13  1  0
 13 14  1  0
 16 17  1  0
 16 15  2  0
 17 19  1  0
 18 20  1  0
 18 17  2  0
 19 21  2  0
 20 22  2  0
 22 21  1  0
M  RAD  8   3   2   8   2  14   2  15   2  16   2  18   2  19   2  20   2
M  RAD  2  21   2  22   2
M  END
>  <vina_score>  (2) 
-5.9299999999999997

>  <pose_id>  (2) 
2

$$$$

     RDKit          3D

 22 23  0  0  1  0  0  0  0  0999 V2000
   18.1860   11.1750   20.5540 C   0  0  0  0  0  0  0  0  0  0  0  0
   17.5960   11.2480   21.7620 C   0  0  0  0  0  0  0  0  0  0  0  0
   18.2430   11.6820   23.0460 C   0  0  0  0  0  1  0  0  0  0  0  0
   16.2770   10.8570   21.8690 N   0  0  0  0  0  0  0  0  0  0  0  0
   15.5450   10.3130   20.8590 C   0  0  0  0  0  0  0  0  0  0  0  0
   13.9730    9.8290   21.0920 S   0  0  0  0  0  0  0  0  0  0  0  0
   16.1580   10.1580   19.6610 N   0  0  0  0  0  0  0  0  0  0  0  0
   17.4710   10.6830   19.3330 C   0  0  0  0  0  3  0  0  0  0  0  0
   15.8110   10.9200   22.7680 H   0  0  0  0  0  0  0  0  0  0  0  0
   15.6000    9.7670   18.9120 H   0  0  0  0  0  0  0  0  0  0  0  0
   19.5960   11.5410   20.3110 C   0  0  0  0  0  0  0  0  0  0  0  0
   19.9770   12.6940   20.1810 O   0  0  0  0  0  0  0  0  0  0  0  0
   20.3820   10.4350   20.3380 O   0  0  0  0  0  0  0  0  0  0  0  0
   21.6440   10.6090   19.6930 C   0  0  0  0  0  1  0  0  0  0  0  0
   17.2400   11.7820   18.3290 C   0  0  0  0  0  3  0  0  0  0  0  0
   16.0600   12.0130   17.7310 C   0  0  0  0  0  3  0  0  0  0  0  0
   15.8240   13.0810   16.7490 C   0  0  0  0  0  0  0  0  0  0  0  0
   15.8980   12.8590   15.3680 C   0  0  0  0  0  3  0  0  0  0  0  0
   15.4580   14.3520   17.2080 C   0  0  0  0  0  3  0  0  0  0  0  0
   15.6380   13.8950   14.4660 C   0  0  0  0  0  3  0  0  0  0  0  0
   15.1970   15.3880   16.3070 C   0  0  0  0  0  3  0  0  0  0  0  0
   15.2900   15.1590   14.9360 C   0  0  0  0  0  3  0  0  0  0  0  0
  1  2  2  0
  2  4  1  0
  2  3  1  0
  4  9  1  0
  5  6  2  0
  5  4  1  0
  7  5  1  0
  8 15  1  0
  8  7  1  0
  8  1  1  0
 10  7  1  0
 11 13  1  0
 11  1  1  0
 12 11  2  0
 14 13  1  0
 16 15  2  0
 17 19  1  0
 17 16  1  0
 18 17  2  0
 20 22  2  0
 20 18  1  0
 21 19  2  0
 22 21  1  0
M  RAD  8   3   2   8   2  14   2  15   2  16   2  18   2  19   2  20   2
M  RAD  2  21   2  22   2
M  END
>  <vina_score>  (3) 
-5.8899999999999997

>  <pose_id>  (3) 
3

$$$$

     RDKit          3D

 22 23  0  0  1  0  0  0  0  0999 V2000
   18.0630   13.9850   13.7600 C   0  0  0  0  0  0  0  0  0  0  0  0
   17.2830   12.9590   14.1460 C   0  0  0  0  0  0  0  0  0  0  0  0
   15.8360   12.7540   13.7940 C   0  0  0  0  0  1  0  0  0  0  0  0
   17.8270   12.0020   14.9780 N   0  0  0  0  0  0  0  0  0  0  0  0
   19.0750   12.0630   15.5170 C   0  0  0  0  0  0  0  0  0  0  0  0
   19.6320   10.8830   16.5460 S   0  0  0  0  0  0  0  0  0  0  0  0
   19.8380   13.1370   15.1990 N   0  0  0  0  0  0  0  0  0  0  0  0
   19.4860   14.1300   14.2010 C   0  0  0  0  0  3  0  0  0  0  0  0
   17.2590   11.2120   15.2670 H   0  0  0  0  0  0  0  0  0  0  0  0
   20.7700   13.1640   15.5930 H   0  0  0  0  0  0  0  0  0  0  0  0
   17.5940   15.0840   12.8920 C   0  0  0  0  0  0  0  0  0  0  0  0
   17.2900   16.1900   13.3140 O   0  0  0  0  0  0  0  0  0  0  0  0
   17.6330   14.7070   11.5890 O   0  0  0  0  0  0  0  0  0  0  0  0
   17.6080   15.8000   10.6710 C   0  0  0  0  0  1  0  0  0  0  0  0
   20.4560   13.9370   13.0640 C   0  0  0  0  0  3  0  0  0  0  0  0
   21.2800   14.8960   12.6120 C   0  0  0  0  0  3  0  0  0  0  0  0
   22.2280   14.7170   11.5030 C   0  0  0  0  0  0  0  0  0  0  0  0
   23.1720   13.6820   11.4830 C   0  0  0  0  0  3  0  0  0  0  0  0
   22.1500   15.5780   10.4020 C   0  0  0  0  0  3  0  0  0  0  0  0
   24.0360   13.5290   10.3960 C   0  0  0  0  0  3  0  0  0  0  0  0
   23.0140   15.4260    9.3140 C   0  0  0  0  0  3  0  0  0  0  0  0
   23.9580   14.4020    9.3130 C   0  0  0  0  0  3  0  0  0  0  0  0
  1  2  2  0
  1  8  1  0
  2  4  1  0
  3  2  1  0
  4  9  1  0
  4  5  1  0
  5  6  2  0
  7  5  1  0
  7 10  1  0
  8 15  1  0
  8  7  1  0
 11 12  2  0
 11  1  1  0
 13 11  1  0
 14 13  1  0
 16 15  2  0
 17 16  1  0
 18 17  2  0
 19 17  1  0
 20 18  1  0
 21 19  2  0
 22 21  1  0
 22 20  2  0
M  RAD  8   3   2   8   2  14   2  15   2  16   2  18   2  19   2  20   2
M  RAD  2  21   2  22   2
M  END
>  <vina_score>  (4) 
-5.8170000000000002

>  <pose_id>  (4) 
4

$$$$

     RDKit          3D

 22 23  0  0  1  0  0  0  0  0999 V2000
   17.6300   14.0990   14.9470 C   0  0  0  0  0  0  0  0  0  0  0  0
   16.9780   12.9350   14.7700 C   0  0  0  0  0  0  0  0  0  0  0  0
   15.4950   12.7590   14.6010 C   0  0  0  0  0  1  0  0  0  0  0  0
   17.7130   11.7680   14.7750 N   0  0  0  0  0  0  0  0  0  0  0  0
   19.0450   11.6910   15.0380 C   0  0  0  0  0  0  0  0  0  0  0  0
   19.8400   10.2320   15.0650 S   0  0  0  0  0  0  0  0  0  0  0  0
   19.6940   12.8510   15.3010 N   0  0  0  0  0  0  0  0  0  0  0  0
   19.1110   14.1720   15.1550 C   0  0  0  0  0  3  0  0  0  0  0  0
   17.2400   10.8810   14.6260 H   0  0  0  0  0  0  0  0  0  0  0  0
   20.6880   12.7850   15.4790 H   0  0  0  0  0  0  0  0  0  0  0  0
   16.9580   15.4130   14.9850 C   0  0  0  0  0  0  0  0  0  0  0  0
   16.4720   15.9470   14.0000 O   0  0  0  0  0  0  0  0  0  0  0  0
   16.8970   15.8760   16.2590 O   0  0  0  0  0  0  0  0  0  0  0  0
   15.5700   16.1510   16.7100 C   0  0  0  0  0  1  0  0  0  0  0  0
   19.8180   14.8110   13.9870 C   0  0  0  0  0  3  0  0  0  0  0  0
   19.6750   14.4070   12.7140 C   0  0  0  0  0  3  0  0  0  0  0  0
   20.3600   15.0210   11.5690 C   0  0  0  0  0  0  0  0  0  0  0  0
   21.7550   15.0140   11.4370 C   0  0  0  0  0  3  0  0  0  0  0  0
   19.5910   15.5860   10.5450 C   0  0  0  0  0  3  0  0  0  0  0  0
   22.3670   15.5840   10.3180 C   0  0  0  0  0  3  0  0  0  0  0  0
   20.2020   16.1560    9.4240 C   0  0  0  0  0  3  0  0  0  0  0  0
   21.5910   16.1560    9.3130 C   0  0  0  0  0  3  0  0  0  0  0  0
  1 11  1  0
  1  8  1  0
  2  4  1  0
  2  1  2  0
  3  2  1  0
  4  5  1  0
  5  6  2  0
  5  7  1  0
  7 10  1  0
  8 15  1  0
  8  7  1  0
  9  4  1  0
 11 13  1  0
 12 11  2  0
 13 14  1  0
 16 15  2  0
 17 16  1  0
 18 17  2  0
 19 17  1  0
 20 18  1  0
 21 19  2  0
 22 21  1  0
 22 20  2  0
M  RAD  8   3   2   8   2  14   2  15   2  16   2  18   2  19   2  20   2
M  RAD  2  21   2  22   2
M  END
>  <vina_score>  (5) 
-4.9619999999999997

>  <pose_id>  (5) 
5

$$$$
