
     RDKit          3D

 21 19  0  0  0  0  0  0  0  0999 V2000
   22.4350   10.5070   17.3550 C   0  0  0  0  0  2  0  0  0  0  0  0
   21.8640    9.6870   18.5150 C   0  0  0  0  0  2  0  0  0  0  0  0
   20.5510   10.2680   19.0130 C   0  0  0  0  0  0  0  0  0  0  0  0
   20.2470    9.8100   20.2880 N   0  0  0  0  0  0  0  0  0  0  0  0
   19.8880   11.0590   18.3520 O   0  0  0  0  0  0  0  0  0  0  0  0
   21.0510    9.5180   20.8300 H   0  0  0  0  0  0  0  0  0  0  0  0
   19.0930   10.1480   21.0350 C   0  0  0  0  0  0  0  0  0  0  0  0
   17.8080    9.5960   20.8490 C   0  0  0  0  0  0  0  0  0  0  0  0
   16.7450   10.1180   21.6180 C   0  0  0  0  0  0  0  0  0  0  0  0
   16.9630   11.0910   22.5980 C   0  0  0  0  0  3  0  0  0  0  0  0
   19.3040   11.0880   22.0610 C   0  0  0  0  0  3  0  0  0  0  0  0
   18.2480   11.5610   22.8350 C   0  0  0  0  0  3  0  0  0  0  0  0
   17.5420    8.4450   19.9130 C   0  0  0  0  0  1  0  0  0  0  0  0
   15.1110    9.5790   21.4110 Cl  0  0  0  0  0  0  0  0  0  0  0  0
   23.7480    9.9840   16.9050 N   0  0  0  0  0  0  0  0  0  0  0  0
   24.5370   11.0920   16.3390 C   0  0  0  0  0  2  0  0  0  0  0  0
   25.4450   10.7280   15.1590 C   0  0  0  0  0  2  0  0  0  0  0  0
   24.7490   10.8400   13.8090 C   0  0  0  0  0  1  0  0  0  0  0  0
   23.7400    9.7360   13.5220 *   0  0  0  0  0  0  0  0  0  0  0  0
   23.5710    8.8680   15.9580 C   0  0  0  0  0  1  0  0  0  0  0  0
   22.8390    9.3090   14.6910 *   0  0  0  0  0  0  0  0  0  0  0  0
  1  2  1  0
  2  3  1  0
  3  4  1  0
  4  6  1  0
  4  7  1  0
  5  3  2  0
  7 11  1  0
  8  7  2  0
  8  9  1  0
  9 10  2  0
 10 12  1  0
 11 12  2  0
 13  8  1  0
 14  9  1  0
 15  1  1  0
 16 15  1  0
 17 16  1  0
 18 17  1  0
 20 15  1  0
V   19 *
V   21 *
M  END
>  <vina_score>  (1) 
-4.7690000000000001

>  <pose_id>  (1) 
1

$$$$

     RDKit          3D

 21 19  0  0  0  0  0  0  0  0999 V2000
   23.1300    9.9170   16.2650 C   0  0  0  0  0  2  0  0  0  0  0  0
   24.4930   10.5940   16.0990 C   0  0  0  0  0  2  0  0  0  0  0  0
   24.3880   11.8550   15.2590 C   0  0  0  0  0  0  0  0  0  0  0  0
   23.3700   11.7530   14.3200 N   0  0  0  0  0  0  0  0  0  0  0  0
   25.1120   12.8270   15.4360 O   0  0  0  0  0  0  0  0  0  0  0  0
   22.6360   11.1000   14.5690 H   0  0  0  0  0  0  0  0  0  0  0  0
   23.0140   12.7450   13.3750 C   0  0  0  0  0  0  0  0  0  0  0  0
   23.5210   12.8410   12.0610 C   0  0  0  0  0  0  0  0  0  0  0  0
   23.1310   13.9520   11.2800 C   0  0  0  0  0  0  0  0  0  0  0  0
   22.2050   14.8860   11.7530 C   0  0  0  0  0  3  0  0  0  0  0  0
   22.0430   13.6640   13.8140 C   0  0  0  0  0  3  0  0  0  0  0  0
   21.6440   14.7300   13.0130 C   0  0  0  0  0  3  0  0  0  0  0  0
   24.4060   11.7860   11.4490 C   0  0  0  0  0  1  0  0  0  0  0  0
   23.7590   14.2210    9.6880 Cl  0  0  0  0  0  0  0  0  0  0  0  0
   22.2870   10.6140   17.2660 N   0  0  0  0  0  0  0  0  0  0  0  0
   22.5760   10.0660   18.6020 C   0  0  0  0  0  2  0  0  0  0  0  0
   21.8190   10.7140   19.7670 C   0  0  0  0  0  2  0  0  0  0  0  0
   20.3190   10.4510   19.7290 C   0  0  0  0  0  1  0  0  0  0  0  0
   19.9100    9.2230   18.9270 *   0  0  0  0  0  0  0  0  0  0  0  0
   20.8610   10.5200   16.9070 C   0  0  0  0  0  1  0  0  0  0  0  0
   20.2270    9.2300   17.4300 *   0  0  0  0  0  0  0  0  0  0  0  0
  1 15  1  0
  2  1  1  0
  3  5  2  0
  3  2  1  0
  4  6  1  0
  4  3  1  0
  7 11  1  0
  7  4  1  0
  8  7  2  0
  9 10  2  0
  9  8  1  0
 10 12  1  0
 12 11  2  0
 13  8  1  0
 14  9  1  0
 15 16  1  0
 16 17  1  0
 18 17  1  0
 20 15  1  0
V   19 *
V   21 *
M  END
>  <vina_score>  (2) 
-4.6719999999999997

>  <pose_id>  (2) 
2

$$$$

     RDKit          3D

 21 19  0  0  0  0  0  0  0  0999 V2000
   24.4290   10.8930   13.4400 C   0  0  0  0  0  2  0  0  0  0  0  0
   24.3560   12.4050   13.2140 C   0  0  0  0  0  2  0  0  0  0  0  0
   23.1910   12.7760   12.3130 C   0  0  0  0  0  0  0  0  0  0  0  0
   22.8420   14.1120   12.4610 N   0  0  0  0  0  0  0  0  0  0  0  0
   22.6700   11.9750   11.5460 O   0  0  0  0  0  0  0  0  0  0  0  0
   23.5920   14.7050   12.7950 H   0  0  0  0  0  0  0  0  0  0  0  0
   21.7940   14.7740   11.7780 C   0  0  0  0  0  0  0  0  0  0  0  0
   20.4170   14.6210   12.0490 C   0  0  0  0  0  0  0  0  0  0  0  0
   19.4980   15.2850   11.2060 C   0  0  0  0  0  0  0  0  0  0  0  0
   19.9300   16.1380   10.1850 C   0  0  0  0  0  3  0  0  0  0  0  0
   22.2110   15.6760   10.7830 C   0  0  0  0  0  3  0  0  0  0  0  0
   21.2880   16.3500    9.9870 C   0  0  0  0  0  3  0  0  0  0  0  0
   19.8990   13.8340   13.2250 C   0  0  0  0  0  1  0  0  0  0  0  0
   17.7850   15.1000   11.3880 Cl  0  0  0  0  0  0  0  0  0  0  0  0
   23.9550   10.5150   14.7940 N   0  0  0  0  0  0  0  0  0  0  0  0
   24.9050   11.0290   15.7960 C   0  0  0  0  0  2  0  0  0  0  0  0
   26.3350   10.4870   15.6980 C   0  0  0  0  0  2  0  0  0  0  0  0
   26.4290    8.9870   15.9440 C   0  0  0  0  0  1  0  0  0  0  0  0
   25.3250    8.4200   16.8260 *   0  0  0  0  0  0  0  0  0  0  0  0
   23.7560    9.0580   14.8920 C   0  0  0  0  0  1  0  0  0  0  0  0
   23.8960    8.5600   16.3300 *   0  0  0  0  0  0  0  0  0  0  0  0
  1 15  1  0
  2  1  1  0
  3  4  1  0
  3  2  1  0
  4  6  1  0
  5  3  2  0
  7  8  1  0
  7  4  1  0
  8 13  1  0
  9 14  1  0
  9  8  2  0
 10  9  1  0
 11  7  2  0
 12 10  2  0
 12 11  1  0
 15 20  1  0
 15 16  1  0
 17 16  1  0
 17 18  1  0
V   19 *
V   21 *
M  END
>  <vina_score>  (3) 
-4.6100000000000003

>  <pose_id>  (3) 
3

$$$$

     RDKit          3D

 21 19  0  0  0  0  0  0  0  0999 V2000
   16.3680   12.0160   14.0510 C   0  0  0  0  0  2  0  0  0  0  0  0
   17.7630   11.8930   14.6700 C   0  0  0  0  0  2  0  0  0  0  0  0
   18.8520   12.0700   13.6250 C   0  0  0  0  0  0  0  0  0  0  0  0
   19.4720   13.3060   13.7450 N   0  0  0  0  0  0  0  0  0  0  0  0
   19.1330   11.1970   12.8120 O   0  0  0  0  0  0  0  0  0  0  0  0
   19.4190   13.7120   14.6720 H   0  0  0  0  0  0  0  0  0  0  0  0
   20.5180   13.7910   12.9230 C   0  0  0  0  0  0  0  0  0  0  0  0
   21.8710   13.3970   13.0050 C   0  0  0  0  0  0  0  0  0  0  0  0
   22.8030   14.0530   12.1710 C   0  0  0  0  0  0  0  0  0  0  0  0
   22.3960   15.0030   11.2290 C   0  0  0  0  0  3  0  0  0  0  0  0
   20.1190   14.7090   11.9340 C   0  0  0  0  0  3  0  0  0  0  0  0
   21.0500   15.3160   11.0960 C   0  0  0  0  0  3  0  0  0  0  0  0
   22.3430   12.2770   13.8960 C   0  0  0  0  0  1  0  0  0  0  0  0
   24.5010   13.7160   12.2480 Cl  0  0  0  0  0  0  0  0  0  0  0  0
   15.6120   13.1580   14.6200 N   0  0  0  0  0  0  0  0  0  0  0  0
   15.1970   14.0510   13.5240 C   0  0  0  0  0  2  0  0  0  0  0  0
   16.2960   14.9470   12.9420 C   0  0  0  0  0  2  0  0  0  0  0  0
   16.6620   16.1150   13.8470 C   0  0  0  0  0  1  0  0  0  0  0  0
   15.7510   16.2920   15.0550 *   0  0  0  0  0  0  0  0  0  0  0  0
   16.4050   13.8510   15.6500 C   0  0  0  0  0  1  0  0  0  0  0  0
   15.7480   15.1590   16.0900 *   0  0  0  0  0  0  0  0  0  0  0  0
  1 15  1  0
  1  2  1  0
  3  4  1  0
  3  2  1  0
  4  6  1  0
  5  3  2  0
  7  8  1  0
  7  4  1  0
  8 13  1  0
  9 14  1  0
  9  8  2  0
 10  9  1  0
 11  7  2  0
 12 10  2  0
 12 11  1  0
 15 20  1  0
 16 15  1  0
 17 16  1  0
 17 18  1  0
V   19 *
V   21 *
M  END
>  <vina_score>  (4) 
-4.5549999999999997

>  <pose_id>  (4) 
4

$$$$

     RDKit          3D

 21 19  0  0  0  0  0  0  0  0999 V2000
   18.5240   11.4320   14.3780 C   0  0  0  0  0  2  0  0  0  0  0  0
   19.4800   12.0040   15.4280 C   0  0  0  0  0  2  0  0  0  0  0  0
   19.4290   11.2050   16.7190 C   0  0  0  0  0  0  0  0  0  0  0  0
   19.2080   12.0280   17.8150 N   0  0  0  0  0  0  0  0  0  0  0  0
   19.5470    9.9860   16.7440 O   0  0  0  0  0  0  0  0  0  0  0  0
   18.7380   12.8990   17.5950 H   0  0  0  0  0  0  0  0  0  0  0  0
   19.1170   11.6060   19.1630 C   0  0  0  0  0  0  0  0  0  0  0  0
   17.9190   11.2950   19.8420 C   0  0  0  0  0  0  0  0  0  0  0  0
   18.0000   10.9820   21.2170 C   0  0  0  0  0  0  0  0  0  0  0  0
   19.2310   10.8950   21.8740 C   0  0  0  0  0  3  0  0  0  0  0  0
   20.3500   11.4610   19.8250 C   0  0  0  0  0  3  0  0  0  0  0  0
   20.4090   11.1140   21.1720 C   0  0  0  0  0  3  0  0  0  0  0  0
   16.5820   11.2290   19.1510 C   0  0  0  0  0  1  0  0  0  0  0  0
   16.5880   10.6710   22.1730 Cl  0  0  0  0  0  0  0  0  0  0  0  0
   18.1490   12.4470   13.3640 N   0  0  0  0  0  0  0  0  0  0  0  0
   19.0210   13.6250   13.5170 C   0  0  0  0  0  2  0  0  0  0  0  0
   18.7550   14.7820   12.5480 C   0  0  0  0  0  2  0  0  0  0  0  0
   17.4400   15.5000   12.8160 C   0  0  0  0  0  1  0  0  0  0  0  0
   16.8590   15.2630   14.2040 *   0  0  0  0  0  0  0  0  0  0  0  0
   16.7170   12.7820   13.4620 C   0  0  0  0  0  1  0  0  0  0  0  0
   16.4490   13.8190   14.5530 *   0  0  0  0  0  0  0  0  0  0  0  0
  1  2  1  0
  2  3  1  0
  3  5  2  0
  3  4  1  0
  4  7  1  0
  6  4  1  0
  7 11  2  0
  7  8  1  0
  8  9  2  0
  9 10  1  0
  9 14  1  0
 11 12  1  0
 12 10  2  0
 13  8  1  0
 15 20  1  0
 15 16  1  0
 15  1  1  0
 17 18  1  0
 17 16  1  0
V   19 *
V   21 *
M  END
>  <vina_score>  (5) 
-4.5519999999999996

>  <pose_id>  (5) 
5

$$$$
