
     RDKit          3D

 25 28  0  0  1  0  0  0  0  0999 V2000
   16.9560   12.9750   15.9070 N   0  0  0  0  0  0  0  0  0  0  0  0
   16.6470   14.2930   15.6230 C   0  0  0  0  0  0  0  0  0  0  0  0
   16.5910   15.2060   16.4410 O   0  0  0  0  0  0  0  0  0  0  0  0
   16.9650   12.3300   15.1250 H   0  0  0  0  0  0  0  0  0  0  0  0
   17.2700   12.4060   17.1620 C   0  0  0  0  0  0  0  0  0  0  0  0
   15.5080   10.8010   20.2110 C   0  0  0  0  0  3  0  0  0  0  0  0
   16.4980   10.3910   21.3330 C   0  0  0  0  0  0  0  0  0  0  0  0
   16.4270   11.3640   19.1590 C   0  0  0  0  0  0  0  0  0  0  0  0
   16.2010    9.9010   22.4110 O   0  0  0  0  0  0  0  0  0  0  0  0
   17.7750   10.6910   20.8720 N   0  0  0  0  0  0  0  0  0  0  0  0
   16.1800   11.9270   17.9210 C   0  0  0  0  0  3  0  0  0  0  0  0
   17.7290   11.2810   19.6190 C   0  0  0  0  0  0  0  0  0  0  0  0
   19.0320   10.5800   21.5800 C   0  0  0  0  0  2  0  0  0  0  0  0
   18.8290   11.7230   18.9160 C   0  0  0  0  0  0  0  0  0  0  0  0
   20.2160   10.4880   20.6080 C   0  0  0  0  0  2  0  0  0  0  0  0
   18.5850   12.3050   17.6680 C   0  0  0  0  0  3  0  0  0  0  0  0
   20.1870   11.6050   19.5470 C   0  0  0  0  0  2  0  0  0  0  0  0
   14.7040    9.6060   19.7290 C   0  0  0  0  0  1  0  0  0  0  0  0
   16.3560   14.6180   14.1920 C   0  0  0  0  0  0  0  0  0  0  0  0
   17.0620   15.6730   13.5900 C   0  0  0  0  0  3  0  0  0  0  0  0
   15.4180   13.9250   13.4230 C   0  0  0  0  0  0  0  0  0  0  0  0
   16.8280   16.0180   12.2550 C   0  0  0  0  0  3  0  0  0  0  0  0
   15.1820   14.2650   12.0900 C   0  0  0  0  0  3  0  0  0  0  0  0
   15.8880   15.3140   11.5060 C   0  0  0  0  0  3  0  0  0  0  0  0
   14.7130   12.9080   13.9420 F   0  0  0  0  0  0  0  0  0  0  0  0
  1  5  1  0
  2  1  1  0
  2  3  2  0
  4  1  1  0
  5 16  2  0
  5 11  1  0
  6 18  1  0
  6  7  1  0
  7  9  2  0
  8 12  1  0
  8  6  1  0
 10  7  1  0
 10 13  1  0
 11  8  2  0
 12 10  1  0
 14 17  1  0
 14 12  2  0
 15 13  1  0
 16 14  1  0
 17 15  1  0
 19  2  1  0
 20 19  2  0
 21 25  1  0
 21 19  1  0
 22 20  1  0
 23 21  2  0
 24 23  1  0
 24 22  2  0
M  RAD  8   6   2  11   2  13   3  15   3  16   2  17   3  18   2  20   2
M  RAD  3  22   2  23   2  24   2
M  END
>  <vina_score>  (1) 
-7.8550000000000004

>  <pose_id>  (1) 
1

$$$$

     RDKit          3D

 25 28  0  0  1  0  0  0  0  0999 V2000
   16.4490   12.9080   16.0110 N   0  0  0  0  0  0  0  0  0  0  0  0
   15.9820   14.1870   15.7700 C   0  0  0  0  0  0  0  0  0  0  0  0
   15.5990   14.9810   16.6250 O   0  0  0  0  0  0  0  0  0  0  0  0
   16.7320   12.3650   15.2010 H   0  0  0  0  0  0  0  0  0  0  0  0
   16.5880   12.2510   17.2540 C   0  0  0  0  0  0  0  0  0  0  0  0
   19.3550   10.8840   19.5890 C   0  0  0  0  0  3  0  0  0  0  0  0
   18.7870   10.2090   20.8660 C   0  0  0  0  0  0  0  0  0  0  0  0
   18.1060   11.3380   18.8820 C   0  0  0  0  0  0  0  0  0  0  0  0
   19.4400    9.6660   21.7440 O   0  0  0  0  0  0  0  0  0  0  0  0
   17.4050   10.3420   20.8110 N   0  0  0  0  0  0  0  0  0  0  0  0
   17.9090   11.9840   17.6750 C   0  0  0  0  0  3  0  0  0  0  0  0
   17.0090   10.9750   19.6430 C   0  0  0  0  0  0  0  0  0  0  0  0
   16.4160    9.8020   21.7180 C   0  0  0  0  0  2  0  0  0  0  0  0
   15.7010   11.2210   19.2850 C   0  0  0  0  0  0  0  0  0  0  0  0
   15.0970   10.5830   21.6390 C   0  0  0  0  0  2  0  0  0  0  0  0
   15.4950   11.8620   18.0600 C   0  0  0  0  0  3  0  0  0  0  0  0
   14.6010   10.7420   20.1890 C   0  0  0  0  0  2  0  0  0  0  0  0
   20.2920   12.0240   19.9450 C   0  0  0  0  0  1  0  0  0  0  0  0
   15.9440   14.6270   14.3400 C   0  0  0  0  0  0  0  0  0  0  0  0
   15.1690   13.8840   13.4340 C   0  0  0  0  0  3  0  0  0  0  0  0
   16.6380   15.7400   13.8610 C   0  0  0  0  0  0  0  0  0  0  0  0
   15.0990   14.2520   12.0870 C   0  0  0  0  0  3  0  0  0  0  0  0
   16.5710   16.1110   12.5170 C   0  0  0  0  0  3  0  0  0  0  0  0
   15.8000   15.3660   11.6290 C   0  0  0  0  0  3  0  0  0  0  0  0
   17.3940   16.4890   14.6790 F   0  0  0  0  0  0  0  0  0  0  0  0
  1  5  1  0
  2  1  1  0
  2  3  2  0
  4  1  1  0
  5 11  1  0
  5 16  2  0
  6 18  1  0
  6  7  1  0
  7  9  2  0
  8  6  1  0
  8 12  1  0
 10  7  1  0
 10 13  1  0
 11  8  2  0
 12 10  1  0
 14 12  2  0
 14 17  1  0
 15 13  1  0
 16 14  1  0
 17 15  1  0
 19  2  1  0
 20 19  2  0
 21 19  1  0
 21 25  1  0
 22 20  1  0
 23 21  2  0
 24 22  2  0
 24 23  1  0
M  RAD  8   6   2  11   2  13   3  15   3  16   2  17   3  18   2  20   2
M  RAD  3  22   2  23   2  24   2
M  END
>  <vina_score>  (2) 
-7.7329999999999997

>  <pose_id>  (2) 
2

$$$$

     RDKit          3D

 25 28  0  0  1  0  0  0  0  0999 V2000
   19.3090   14.3660   14.1100 N   0  0  0  0  0  0  0  0  0  0  0  0
   17.9930   14.1070   13.7740 C   0  0  0  0  0  0  0  0  0  0  0  0
   17.6170   13.4800   12.7890 O   0  0  0  0  0  0  0  0  0  0  0  0
   19.4680   14.8990   14.9590 H   0  0  0  0  0  0  0  0  0  0  0  0
   20.4770   13.9750   13.4180 C   0  0  0  0  0  0  0  0  0  0  0  0
   23.1730   11.1990   13.4860 C   0  0  0  0  0  3  0  0  0  0  0  0
   24.2640   11.3910   12.3990 C   0  0  0  0  0  0  0  0  0  0  0  0
   22.2580   12.3690   13.2340 C   0  0  0  0  0  0  0  0  0  0  0  0
   25.2430   10.6810   12.2280 O   0  0  0  0  0  0  0  0  0  0  0  0
   23.9100   12.5200   11.6680 N   0  0  0  0  0  0  0  0  0  0  0  0
   21.1080   12.7960   13.8710 C   0  0  0  0  0  3  0  0  0  0  0  0
   22.7580   13.1020   12.1720 C   0  0  0  0  0  0  0  0  0  0  0  0
   24.6490   13.1670   10.6060 C   0  0  0  0  0  2  0  0  0  0  0  0
   22.1780   14.2530   11.6840 C   0  0  0  0  0  0  0  0  0  0  0  0
   23.7270   14.0160    9.7200 C   0  0  0  0  0  2  0  0  0  0  0  0
   21.0210   14.6970   12.3310 C   0  0  0  0  0  3  0  0  0  0  0  0
   22.8440   14.9720   10.5460 C   0  0  0  0  0  2  0  0  0  0  0  0
   22.4830    9.8540   13.3340 C   0  0  0  0  0  1  0  0  0  0  0  0
   16.9480   14.6470   14.7000 C   0  0  0  0  0  0  0  0  0  0  0  0
   16.6990   13.9580   15.8980 C   0  0  0  0  0  3  0  0  0  0  0  0
   16.2090   15.8010   14.4330 C   0  0  0  0  0  0  0  0  0  0  0  0
   15.7330   14.4190   16.7990 C   0  0  0  0  0  3  0  0  0  0  0  0
   15.2440   16.2660   15.3290 C   0  0  0  0  0  3  0  0  0  0  0  0
   15.0060   15.5730   16.5130 C   0  0  0  0  0  3  0  0  0  0  0  0
   16.4020   16.5020   13.3050 F   0  0  0  0  0  0  0  0  0  0  0  0
  1  4  1  0
  2  1  1  0
  2 19  1  0
  3  2  2  0
  5 11  1  0
  5  1  1  0
  6 18  1  0
  7  6  1  0
  8  6  1  0
  8 11  2  0
  9  7  2  0
 10 12  1  0
 10  7  1  0
 12  8  1  0
 13 10  1  0
 14 12  2  0
 14 16  1  0
 15 17  1  0
 15 13  1  0
 16  5  2  0
 17 14  1  0
 19 20  2  0
 20 22  1  0
 21 19  1  0
 21 23  2  0
 23 24  1  0
 24 22  2  0
 25 21  1  0
M  RAD  8   6   2  11   2  13   3  15   3  16   2  17   3  18   2  20   2
M  RAD  3  22   2  23   2  24   2
M  END
>  <vina_score>  (3) 
-7.6280000000000001

>  <pose_id>  (3) 
3

$$$$

     RDKit          3D

 25 28  0  0  1  0  0  0  0  0999 V2000
   17.3390   12.8080   17.5730 N   0  0  0  0  0  0  0  0  0  0  0  0
   17.2260   11.5050   18.0230 C   0  0  0  0  0  0  0  0  0  0  0  0
   17.0490   10.5180   17.3170 O   0  0  0  0  0  0  0  0  0  0  0  0
   17.4850   13.5230   18.2780 H   0  0  0  0  0  0  0  0  0  0  0  0
   17.2790   13.2770   16.2420 C   0  0  0  0  0  0  0  0  0  0  0  0
   19.6420   14.3350   13.3660 C   0  0  0  0  0  3  0  0  0  0  0  0
   18.8780   14.8050   12.0990 C   0  0  0  0  0  0  0  0  0  0  0  0
   18.5210   13.9680   14.3010 C   0  0  0  0  0  0  0  0  0  0  0  0
   19.3820   15.2240   11.0690 O   0  0  0  0  0  0  0  0  0  0  0  0
   17.5230   14.6570   12.3690 N   0  0  0  0  0  0  0  0  0  0  0  0
   18.5180   13.5030   15.6040 C   0  0  0  0  0  3  0  0  0  0  0  0
   17.3160   14.1950   13.6590 C   0  0  0  0  0  0  0  0  0  0  0  0
   16.3980   15.0410   11.5440 C   0  0  0  0  0  2  0  0  0  0  0  0
   16.0810   13.9830   14.2320 C   0  0  0  0  0  0  0  0  0  0  0  0
   15.1340   14.2570   11.9210 C   0  0  0  0  0  2  0  0  0  0  0  0
   16.0710   13.5250   15.5530 C   0  0  0  0  0  3  0  0  0  0  0  0
   14.8490   14.3040   13.4350 C   0  0  0  0  0  2  0  0  0  0  0  0
   20.5630   13.1710   13.0460 C   0  0  0  0  0  1  0  0  0  0  0  0
   17.3300   11.2970   19.5020 C   0  0  0  0  0  0  0  0  0  0  0  0
   16.2490   10.6960   20.1680 C   0  0  0  0  0  3  0  0  0  0  0  0
   18.4470   11.6700   20.2530 C   0  0  0  0  0  0  0  0  0  0  0  0
   16.2940   10.4780   21.5490 C   0  0  0  0  0  3  0  0  0  0  0  0
   18.4960   11.4550   21.6310 C   0  0  0  0  0  3  0  0  0  0  0  0
   17.4180   10.8580   22.2800 C   0  0  0  0  0  3  0  0  0  0  0  0
   19.5100   12.2490   19.6730 F   0  0  0  0  0  0  0  0  0  0  0  0
  1  2  1  0
  1  4  1  0
  2 19  1  0
  3  2  2  0
  5  1  1  0
  6 18  1  0
  6  8  1  0
  7 10  1  0
  7  6  1  0
  8 11  2  0
  9  7  2  0
 10 12  1  0
 11  5  1  0
 12 14  2  0
 12  8  1  0
 13 15  1  0
 13 10  1  0
 14 16  1  0
 15 17  1  0
 16  5  2  0
 17 14  1  0
 19 20  2  0
 19 21  1  0
 20 22  1  0
 21 23  2  0
 22 24  2  0
 23 24  1  0
 25 21  1  0
M  RAD  8   6   2  11   2  13   3  15   3  16   2  17   3  18   2  20   2
M  RAD  3  22   2  23   2  24   2
M  END
>  <vina_score>  (4) 
-7.4909999999999997

>  <pose_id>  (4) 
4

$$$$

     RDKit          3D

 25 28  0  0  1  0  0  0  0  0999 V2000
   21.2150   12.7800   14.7100 N   0  0  0  0  0  0  0  0  0  0  0  0
   21.5290   11.4340   14.7570 C   0  0  0  0  0  0  0  0  0  0  0  0
   21.5360   10.6670   13.7990 O   0  0  0  0  0  0  0  0  0  0  0  0
   21.2530   13.2880   15.5870 H   0  0  0  0  0  0  0  0  0  0  0  0
   20.8490   13.5490   13.5830 C   0  0  0  0  0  0  0  0  0  0  0  0
   17.6890   15.0110   11.8940 C   0  0  0  0  0  3  0  0  0  0  0  0
   18.0060   15.7780   10.5830 C   0  0  0  0  0  0  0  0  0  0  0  0
   19.0550   14.5750   12.3510 C   0  0  0  0  0  0  0  0  0  0  0  0
   17.1900   16.3010    9.8400 O   0  0  0  0  0  0  0  0  0  0  0  0
   19.3870   15.7500   10.4240 N   0  0  0  0  0  0  0  0  0  0  0  0
   19.4730   13.8290   13.4380 C   0  0  0  0  0  3  0  0  0  0  0  0
   19.9930   15.0270   11.4390 C   0  0  0  0  0  0  0  0  0  0  0  0
   20.1710   16.2460    9.3140 C   0  0  0  0  0  2  0  0  0  0  0  0
   21.3470   14.7910   11.5370 C   0  0  0  0  0  0  0  0  0  0  0  0
   21.6230   16.5150    9.7310 C   0  0  0  0  0  2  0  0  0  0  0  0
   21.7740   14.0270   12.6280 C   0  0  0  0  0  3  0  0  0  0  0  0
   22.2520   15.3100   10.4570 C   0  0  0  0  0  2  0  0  0  0  0  0
   16.9800   15.9090   12.8930 C   0  0  0  0  0  1  0  0  0  0  0  0
   21.8850   10.8770   16.1000 C   0  0  0  0  0  0  0  0  0  0  0  0
   20.8440   10.5660   16.9910 C   0  0  0  0  0  3  0  0  0  0  0  0
   23.2000   10.6500   16.5120 C   0  0  0  0  0  0  0  0  0  0  0  0
   21.1220   10.0430   18.2580 C   0  0  0  0  0  3  0  0  0  0  0  0
   23.4820   10.1280   17.7750 C   0  0  0  0  0  3  0  0  0  0  0  0
   22.4410    9.8240   18.6490 C   0  0  0  0  0  3  0  0  0  0  0  0
   24.2360   10.9270   15.7050 F   0  0  0  0  0  0  0  0  0  0  0  0
  1  2  1  0
  1  4  1  0
  2 19  1  0
  3  2  2  0
  5  1  1  0
  6  8  1  0
  6 18  1  0
  7  6  1  0
  8 11  2  0
  9  7  2  0
 10  7  1  0
 10 12  1  0
 11  5  1  0
 12 14  2  0
 12  8  1  0
 13 15  1  0
 13 10  1  0
 14 16  1  0
 15 17  1  0
 16  5  2  0
 17 14  1  0
 19 21  1  0
 19 20  2  0
 20 22  1  0
 21 23  2  0
 22 24  2  0
 23 24  1  0
 25 21  1  0
M  RAD  8   6   2  11   2  13   3  15   3  16   2  17   3  18   2  20   2
M  RAD  3  22   2  23   2  24   2
M  END
>  <vina_score>  (5) 
-7.4370000000000003

>  <pose_id>  (5) 
5

$$$$
