
     RDKit          3D

 23 24  0  0  1  0  0  0  0  0999 V2000
   21.9720   14.5660   11.5530 C   0  0  0  0  0  2  0  0  0  0  0  0
   22.2850   13.2830   12.1270 N   0  0  0  0  0  0  0  0  0  0  0  0
   23.4830   13.0020   12.7490 C   0  0  0  0  0  0  0  0  0  0  0  0
   24.4130   13.8030   12.7980 O   0  0  0  0  0  0  0  0  0  0  0  0
   21.5830   12.5510   12.1370 H   0  0  0  0  0  0  0  0  0  0  0  0
   23.5110   11.6030   13.4530 C   0  0  1  0  0  0  0  0  0  0  0  0
   23.4130   10.5120   12.4300 N   0  0  0  0  0  0  0  0  0  0  0  0
   23.3760    9.1730   13.0480 C   0  0  0  0  0  2  0  0  0  0  0  0
   24.1460    8.9990   14.3660 C   0  0  0  0  0  2  0  0  0  0  0  0
   24.7840   11.4680   14.3240 C   0  0  0  0  0  2  0  0  0  0  0  0
   25.2450   10.0270   14.5710 C   0  0  0  0  0  2  0  0  0  0  0  0
   24.4800   10.5680   11.4180 C   0  0  0  0  0  1  0  0  0  0  0  0
   22.2420   11.6150   14.3460 C   0  0  0  0  0  1  0  0  0  0  0  0
   20.4920   14.8320   11.6330 C   0  0  0  0  0  0  0  0  0  0  0  0
   19.8340   15.5540   10.6350 C   0  0  0  0  0  3  0  0  0  0  0  0
   19.7400   14.3210   12.6960 C   0  0  0  0  0  3  0  0  0  0  0  0
   18.4540   15.7720   10.7100 C   0  0  0  0  0  3  0  0  0  0  0  0
   18.3600   14.5420   12.7690 C   0  0  0  0  0  3  0  0  0  0  0  0
   17.6840   15.2730   11.7790 C   0  0  0  0  0  0  0  0  0  0  0  0
   16.1690   15.5340   11.8270 C   0  0  1  0  0  0  0  0  0  0  0  0
   15.3220   14.2630   12.0610 C   0  0  0  0  0  1  0  0  0  0  0  0
   15.8460   16.5140   12.9770 C   0  0  0  0  0  1  0  0  0  0  0  0
   15.7060   16.1520   10.4890 C   0  0  0  0  0  1  0  0  0  0  0  0
  1 14  1  0
  1  2  1  0
  2  5  1  0
  2  3  1  0
  3  4  2  0
  3  6  1  0
  6 10  1  0
  6 13  1  1
  7  8  1  0
  7  6  1  0
  8  9  1  0
  9 11  1  0
 10 11  1  0
 12  7  1  0
 14 16  2  0
 15 17  2  0
 15 14  1  0
 16 18  1  0
 17 19  1  0
 19 20  1  0
 19 18  2  0
 20 21  1  1
 20 22  1  0
 23 20  1  0
M  RAD  8   1   3   8   3   9   3  10   3  11   3  12   2  13   2  15   2
M  RAD  6  16   2  17   2  18   2  21   2  22   2  23   2
M  END
>  <vina_score>  (1) 
-6.8209999999999997

>  <pose_id>  (1) 
1

$$$$

     RDKit          3D

 23 24  0  0  1  0  0  0  0  0999 V2000
   22.1660   14.7130   11.4490 C   0  0  0  0  0  2  0  0  0  0  0  0
   22.4910   13.3710   11.8580 N   0  0  0  0  0  0  0  0  0  0  0  0
   23.7760   12.8690   11.8590 C   0  0  0  0  0  0  0  0  0  0  0  0
   24.7400   13.5030   11.4400 O   0  0  0  0  0  0  0  0  0  0  0  0
   21.7640   12.7650   12.2210 H   0  0  0  0  0  0  0  0  0  0  0  0
   23.8940   11.4530   12.5200 C   0  0  1  0  0  0  0  0  0  0  0  0
   24.8500   11.5040   13.6730 N   0  0  0  0  0  0  0  0  0  0  0  0
   25.0410   10.1800   14.2940 C   0  0  0  0  0  2  0  0  0  0  0  0
   23.8420    9.2210   14.2600 C   0  0  0  0  0  2  0  0  0  0  0  0
   22.4960   10.9430   12.9460 C   0  0  0  0  0  2  0  0  0  0  0  0
   22.5050    9.9210   14.0880 C   0  0  0  0  0  2  0  0  0  0  0  0
   24.4690   12.4880   14.6990 C   0  0  0  0  0  1  0  0  0  0  0  0
   24.4720   10.5650   11.3850 C   0  0  0  0  0  1  0  0  0  0  0  0
   20.6810   14.9470   11.5420 C   0  0  0  0  0  0  0  0  0  0  0  0
   19.9940   15.6280   10.5350 C   0  0  0  0  0  3  0  0  0  0  0  0
   19.9550   14.4460   12.6270 C   0  0  0  0  0  3  0  0  0  0  0  0
   18.6100   15.8160   10.6240 C   0  0  0  0  0  3  0  0  0  0  0  0
   18.5710   14.6370   12.7130 C   0  0  0  0  0  3  0  0  0  0  0  0
   17.8660   15.3270   11.7140 C   0  0  0  0  0  0  0  0  0  0  0  0
   16.3460   15.5540   11.7770 C   0  0  1  0  0  0  0  0  0  0  0  0
   15.9020   16.5140   12.9040 C   0  0  0  0  0  1  0  0  0  0  0  0
   15.8550   16.1590   10.4430 C   0  0  0  0  0  1  0  0  0  0  0  0
   15.6290   14.2070   12.0170 C   0  0  0  0  0  1  0  0  0  0  0  0
  1 14  1  0
  1  2  1  0
  2  3  1  0
  2  5  1  0
  3  6  1  0
  4  3  2  0
  6 13  1  6
  6 10  1  0
  6  7  1  0
  7  8  1  0
  7 12  1  0
  9  8  1  0
 10 11  1  0
 11  9  1  0
 14 16  2  0
 15 17  2  0
 15 14  1  0
 16 18  1  0
 17 19  1  0
 19 20  1  0
 19 18  2  0
 20 23  1  1
 20 21  1  0
 22 20  1  0
M  RAD  8   1   3   8   3   9   3  10   3  11   3  12   2  13   2  15   2
M  RAD  6  16   2  17   2  18   2  21   2  22   2  23   2
M  END
>  <vina_score>  (2) 
-6.6470000000000002

>  <pose_id>  (2) 
2

$$$$

     RDKit          3D

 23 24  0  0  1  0  0  0  0  0999 V2000
   22.2250   14.3600   11.6000 C   0  0  0  0  0  2  0  0  0  0  0  0
   22.6830   13.5620   12.7090 N   0  0  0  0  0  0  0  0  0  0  0  0
   23.0520   12.2390   12.5890 C   0  0  0  0  0  0  0  0  0  0  0  0
   22.9480   11.6090   11.5390 O   0  0  0  0  0  0  0  0  0  0  0  0
   22.8030   13.9900   13.6200 H   0  0  0  0  0  0  0  0  0  0  0  0
   23.6880   11.6460   13.8920 C   0  0  1  0  0  0  0  0  0  0  0  0
   22.6210   11.3840   14.9110 N   0  0  0  0  0  0  0  0  0  0  0  0
   23.1770   10.8780   16.1800 C   0  0  0  0  0  2  0  0  0  0  0  0
   24.4510   10.0260   16.0850 C   0  0  0  0  0  2  0  0  0  0  0  0
   24.4980   10.3690   13.5580 C   0  0  0  0  0  2  0  0  0  0  0  0
   24.6580    9.3850   14.7230 C   0  0  0  0  0  2  0  0  0  0  0  0
   21.5680   10.4760   14.4280 C   0  0  0  0  0  1  0  0  0  0  0  0
   24.6340   12.7730   14.3860 C   0  0  0  0  0  1  0  0  0  0  0  0
   20.7490   14.6320   11.7220 C   0  0  0  0  0  0  0  0  0  0  0  0
   20.0920   15.4630   10.8120 C   0  0  0  0  0  3  0  0  0  0  0  0
   20.0000   14.0200   12.7320 C   0  0  0  0  0  3  0  0  0  0  0  0
   18.7150   15.6870   10.9230 C   0  0  0  0  0  3  0  0  0  0  0  0
   18.6230   14.2470   12.8410 C   0  0  0  0  0  3  0  0  0  0  0  0
   17.9480   15.0860   11.9400 C   0  0  0  0  0  0  0  0  0  0  0  0
   16.4360   15.3570   12.0300 C   0  0  1  0  0  0  0  0  0  0  0  0
   15.7930   15.7720   10.6870 C   0  0  0  0  0  1  0  0  0  0  0  0
   15.7070   14.0830   12.5100 C   0  0  0  0  0  1  0  0  0  0  0  0
   16.1730   16.5010   13.0340 C   0  0  0  0  0  1  0  0  0  0  0  0
  1 14  1  0
  1  2  1  0
  2  5  1  0
  3  2  1  0
  3  6  1  0
  4  3  2  0
  6 13  1  1
  6  7  1  0
  7  8  1  0
  9  8  1  0
 10  6  1  0
 10 11  1  0
 11  9  1  0
 12  7  1  0
 14 16  2  0
 15 17  2  0
 15 14  1  0
 16 18  1  0
 17 19  1  0
 19 20  1  0
 19 18  2  0
 20 22  1  1
 20 23  1  0
 21 20  1  0
M  RAD  8   1   3   8   3   9   3  10   3  11   3  12   2  13   2  15   2
M  RAD  6  16   2  17   2  18   2  21   2  22   2  23   2
M  END
>  <vina_score>  (3) 
-6.633

>  <pose_id>  (3) 
3

$$$$

     RDKit          3D

 23 24  0  0  1  0  0  0  0  0999 V2000
   18.7390   13.1410   16.0620 C   0  0  0  0  0  2  0  0  0  0  0  0
   17.7630   13.7260   15.1800 N   0  0  0  0  0  0  0  0  0  0  0  0
   17.7660   15.0590   14.8230 C   0  0  0  0  0  0  0  0  0  0  0  0
   18.5590   15.8730   15.2900 O   0  0  0  0  0  0  0  0  0  0  0  0
   17.0650   13.1380   14.7410 H   0  0  0  0  0  0  0  0  0  0  0  0
   16.7210   15.4120   13.7110 C   0  0  1  0  0  0  0  0  0  0  0  0
   17.4210   15.9570   12.5030 N   0  0  0  0  0  0  0  0  0  0  0  0
   16.4740   16.3590   11.4470 C   0  0  0  0  0  2  0  0  0  0  0  0
   15.1670   15.5590   11.3490 C   0  0  0  0  0  2  0  0  0  0  0  0
   15.8610   14.1700   13.3720 C   0  0  0  0  0  2  0  0  0  0  0  0
   15.2510   14.1740   11.9660 C   0  0  0  0  0  2  0  0  0  0  0  0
   18.4260   15.0350   11.9500 C   0  0  0  0  0  1  0  0  0  0  0  0
   15.8460   16.5150   14.3650 C   0  0  0  0  0  1  0  0  0  0  0  0
   18.0610   12.4670   17.2250 C   0  0  0  0  0  0  0  0  0  0  0  0
   16.6750   12.2930   17.2510 C   0  0  0  0  0  3  0  0  0  0  0  0
   18.8180   11.9650   18.2890 C   0  0  0  0  0  3  0  0  0  0  0  0
   16.0620   11.6430   18.3280 C   0  0  0  0  0  3  0  0  0  0  0  0
   18.2010   11.3160   19.3650 C   0  0  0  0  0  3  0  0  0  0  0  0
   16.8090   11.1400   19.4100 C   0  0  0  0  0  0  0  0  0  0  0  0
   16.0990   10.4320   20.5760 C   0  0  1  0  0  0  0  0  0  0  0  0
   14.5770   10.6950   20.6350 C   0  0  0  0  0  1  0  0  0  0  0  0
   16.2930    8.9050   20.4540 C   0  0  0  0  0  1  0  0  0  0  0  0
   16.6970   10.9130   21.9170 C   0  0  0  0  0  1  0  0  0  0  0  0
  1 14  1  0
  2  1  1  0
  3  2  1  0
  3  4  2  0
  5  2  1  0
  6 13  1  1
  6  3  1  0
  7  6  1  0
  8  7  1  0
  9  8  1  0
  9 11  1  0
 10  6  1  0
 11 10  1  0
 12  7  1  0
 14 15  1  0
 14 16  2  0
 15 17  2  0
 16 18  1  0
 17 19  1  0
 18 19  2  0
 19 20  1  0
 20 21  1  1
 20 23  1  0
 22 20  1  0
M  RAD  8   1   3   8   3   9   3  10   3  11   3  12   2  13   2  15   2
M  RAD  6  16   2  17   2  18   2  21   2  22   2  23   2
M  END
>  <vina_score>  (4) 
-6.6319999999999997

>  <pose_id>  (4) 
4

$$$$

     RDKit          3D

 23 24  0  0  1  0  0  0  0  0999 V2000
   20.7960   15.0740   11.7810 C   0  0  0  0  0  2  0  0  0  0  0  0
   19.5840   15.3410   12.5110 N   0  0  0  0  0  0  0  0  0  0  0  0
   18.3270   15.2630   11.9480 C   0  0  0  0  0  0  0  0  0  0  0  0
   18.1430   15.0320   10.7550 O   0  0  0  0  0  0  0  0  0  0  0  0
   19.6280   15.5420   13.5030 H   0  0  0  0  0  0  0  0  0  0  0  0
   17.1650   15.4150   12.9870 C   0  0  1  0  0  0  0  0  0  0  0  0
   16.4070   14.1270   13.1010 N   0  0  0  0  0  0  0  0  0  0  0  0
   15.2640   14.2350   14.0270 C   0  0  0  0  0  2  0  0  0  0  0  0
   15.4200   15.2050   15.2070 C   0  0  0  0  0  2  0  0  0  0  0  0
   17.7270   15.8800   14.3530 C   0  0  0  0  0  2  0  0  0  0  0  0
   16.8660   15.5050   15.5640 C   0  0  0  0  0  2  0  0  0  0  0  0
   17.2560   12.9870   13.4840 C   0  0  0  0  0  1  0  0  0  0  0  0
   16.2600   16.5140   12.3700 C   0  0  0  0  0  1  0  0  0  0  0  0
   21.6660   14.1070   12.5390 C   0  0  0  0  0  0  0  0  0  0  0  0
   23.0390   14.0270   12.2960 C   0  0  0  0  0  3  0  0  0  0  0  0
   21.1140   13.2950   13.5350 C   0  0  0  0  0  3  0  0  0  0  0  0
   23.8380   13.1400   13.0260 C   0  0  0  0  0  3  0  0  0  0  0  0
   21.9160   12.4080   14.2630 C   0  0  0  0  0  3  0  0  0  0  0  0
   23.2970   12.3090   14.0260 C   0  0  0  0  0  0  0  0  0  0  0  0
   24.2070   11.3470   14.8070 C   0  0  1  0  0  0  0  0  0  0  0  0
   25.2740   12.0570   15.6710 C   0  0  0  0  0  1  0  0  0  0  0  0
   23.3530   10.4790   15.7580 C   0  0  0  0  0  1  0  0  0  0  0  0
   24.9580   10.4270   13.8190 C   0  0  0  0  0  1  0  0  0  0  0  0
  1  2  1  0
  1 14  1  0
  2  5  1  0
  3  2  1  0
  3  6  1  0
  4  3  2  0
  6 13  1  6
  6  7  1  0
  6 10  1  0
  7 12  1  0
  7  8  1  0
  8  9  1  0
  9 11  1  0
 10 11  1  0
 14 16  2  0
 15 14  1  0
 15 17  2  0
 16 18  1  0
 17 19  1  0
 19 18  2  0
 19 20  1  0
 20 21  1  1
 20 22  1  0
 23 20  1  0
M  RAD  8   1   3   8   3   9   3  10   3  11   3  12   2  13   2  15   2
M  RAD  6  16   2  17   2  18   2  21   2  22   2  23   2
M  END
>  <vina_score>  (5) 
-6.4420000000000002

>  <pose_id>  (5) 
5

$$$$
