
     RDKit          3D

 19 19  0  0  0  0  0  0  0  0999 V2000
   15.7960   14.4180   15.1770 C   0  0  0  0  0  2  0  0  0  0  0  0
   16.8140   13.7040   16.0640 C   0  0  0  0  0  2  0  0  0  0  0  0
   17.0480   12.2700   15.5700 C   0  0  0  0  0  2  0  0  0  0  0  0
   17.6550   12.1180   14.2410 N   0  0  0  0  0  0  0  0  0  0  0  0
   19.1020   12.3070   14.2460 C   0  0  0  0  0  1  0  0  0  0  0  0
   17.2940   10.8570   13.5970 C   0  0  0  0  0  1  0  0  0  0  0  0
   16.4150   14.9650   13.9830 N   0  0  0  0  0  0  0  0  0  0  0  0
   15.8930   14.7260   12.7290 C   0  0  0  0  0  0  0  0  0  0  0  0
   14.8940   14.0370   12.5340 O   0  0  0  0  0  0  0  0  0  0  0  0
   17.3190   15.4020   14.0850 H   0  0  0  0  0  0  0  0  0  0  0  0
   16.6100   15.3010   11.5580 C   0  0  0  0  0  0  0  0  0  0  0  0
   18.0100   15.2840   11.4730 C   0  0  0  0  0  3  0  0  0  0  0  0
   15.8720   15.8980   10.5220 C   0  0  0  0  0  0  0  0  0  0  0  0
   18.6420   15.8240   10.3500 C   0  0  0  0  0  0  0  0  0  0  0  0
   16.5110   16.4280    9.4030 C   0  0  0  0  0  3  0  0  0  0  0  0
   17.9010   16.3890    9.3130 C   0  0  0  0  0  3  0  0  0  0  0  0
   20.5310   15.7920   10.2400 Br  0  0  0  0  0  0  0  0  0  0  0  0
   14.5060   15.9990   10.5370 O   0  0  0  0  0  0  0  0  0  0  0  0
   14.2630   16.7260   11.1560 H   0  0  0  0  0  0  0  0  0  0  0  0
  1  2  1  0
  3  2  1  0
  4  5  1  0
  4  3  1  0
  6  4  1  0
  7 10  1  0
  7  1  1  0
  8  7  1  0
  9  8  2  0
 11  8  1  0
 12 11  1  0
 13 18  1  0
 13 11  2  0
 14 12  2  0
 15 13  1  0
 16 15  2  0
 16 14  1  0
 17 14  1  0
 18 19  1  0
M  RAD  8   1   3   2   3   3   3   5   2   6   2  12   2  15   2  16   2
M  END
>  <vina_score>  (1) 
-5.3300000000000001

>  <pose_id>  (1) 
1

$$$$

     RDKit          3D

 19 19  0  0  0  0  0  0  0  0999 V2000
   15.9270   13.1740   14.0540 C   0  0  0  0  0  2  0  0  0  0  0  0
   16.4720   12.8270   15.4380 C   0  0  0  0  0  2  0  0  0  0  0  0
   16.8580   14.1010   16.2010 C   0  0  0  0  0  2  0  0  0  0  0  0
   16.0540   15.3020   15.9350 N   0  0  0  0  0  0  0  0  0  0  0  0
   15.0160   15.5300   16.9350 C   0  0  0  0  0  1  0  0  0  0  0  0
   16.8710   16.4970   15.7460 C   0  0  0  0  0  1  0  0  0  0  0  0
   16.9780   13.6370   13.1650 N   0  0  0  0  0  0  0  0  0  0  0  0
   16.8470   14.8050   12.4440 C   0  0  0  0  0  0  0  0  0  0  0  0
   15.8470   15.5180   12.4910 O   0  0  0  0  0  0  0  0  0  0  0  0
   17.7430   13.0050   12.9790 H   0  0  0  0  0  0  0  0  0  0  0  0
   17.9620   15.1870   11.5340 C   0  0  0  0  0  0  0  0  0  0  0  0
   19.3040   15.0090   11.9010 C   0  0  0  0  0  3  0  0  0  0  0  0
   17.6670   15.7630   10.2870 C   0  0  0  0  0  0  0  0  0  0  0  0
   20.3190   15.3690   11.0120 C   0  0  0  0  0  0  0  0  0  0  0  0
   18.6870   16.1140    9.4040 C   0  0  0  0  0  3  0  0  0  0  0  0
   20.0180   15.9140    9.7640 C   0  0  0  0  0  3  0  0  0  0  0  0
   22.1270   15.1210   11.5110 Br  0  0  0  0  0  0  0  0  0  0  0  0
   16.3900   16.0140    9.8610 O   0  0  0  0  0  0  0  0  0  0  0  0
   16.2710   15.5750    8.9880 H   0  0  0  0  0  0  0  0  0  0  0  0
  1  2  1  0
  2  3  1  0
  4  3  1  0
  4  5  1  0
  6  4  1  0
  7  1  1  0
  8  9  2  0
  8  7  1  0
 10  7  1  0
 11 12  1  0
 11  8  1  0
 13 11  2  0
 14 17  1  0
 14 12  2  0
 15 16  2  0
 15 13  1  0
 16 14  1  0
 18 13  1  0
 19 18  1  0
M  RAD  8   1   3   2   3   3   3   5   2   6   2  12   2  15   2  16   2
M  END
>  <vina_score>  (2) 
-5.2720000000000002

>  <pose_id>  (2) 
2

$$$$

     RDKit          3D

 19 19  0  0  0  0  0  0  0  0999 V2000
   17.3610   14.7090   14.4980 C   0  0  0  0  0  2  0  0  0  0  0  0
   16.2050   15.6480   14.1570 C   0  0  0  0  0  2  0  0  0  0  0  0
   16.3780   16.2250   12.7450 C   0  0  0  0  0  2  0  0  0  0  0  0
   16.0920   15.3220   11.6220 N   0  0  0  0  0  0  0  0  0  0  0  0
   15.0790   14.3190   11.9370 C   0  0  0  0  0  1  0  0  0  0  0  0
   15.7550   16.0380   10.3940 C   0  0  0  0  0  1  0  0  0  0  0  0
   18.5300   14.9790   13.6810 N   0  0  0  0  0  0  0  0  0  0  0  0
   19.1300   13.9860   12.9350 C   0  0  0  0  0  0  0  0  0  0  0  0
   18.7340   12.8220   12.9190 O   0  0  0  0  0  0  0  0  0  0  0  0
   18.9770   15.8770   13.7880 H   0  0  0  0  0  0  0  0  0  0  0  0
   20.3420   14.3450   12.1490 C   0  0  0  0  0  0  0  0  0  0  0  0
   21.5600   13.6710   12.3260 C   0  0  0  0  0  3  0  0  0  0  0  0
   20.2770   15.4020   11.2250 C   0  0  0  0  0  0  0  0  0  0  0  0
   22.6690   14.0320   11.5600 C   0  0  0  0  0  0  0  0  0  0  0  0
   21.3880   15.7510   10.4600 C   0  0  0  0  0  3  0  0  0  0  0  0
   22.5890   15.0630   10.6240 C   0  0  0  0  0  3  0  0  0  0  0  0
   24.3060   13.1150   11.8000 Br  0  0  0  0  0  0  0  0  0  0  0  0
   19.1450   16.1440   11.0150 O   0  0  0  0  0  0  0  0  0  0  0  0
   19.4190   17.0800   10.8800 H   0  0  0  0  0  0  0  0  0  0  0  0
  2  1  1  0
  3  2  1  0
  4  5  1  0
  4  3  1  0
  6  4  1  0
  7 10  1  0
  7  1  1  0
  8  7  1  0
  9  8  2  0
 11 12  1  0
 11  8  1  0
 13 11  2  0
 14 17  1  0
 14 12  2  0
 15 16  2  0
 15 13  1  0
 16 14  1  0
 18 13  1  0
 19 18  1  0
M  RAD  8   1   3   2   3   3   3   5   2   6   2  12   2  15   2  16   2
M  END
>  <vina_score>  (3) 
-5.077

>  <pose_id>  (3) 
3

$$$$

     RDKit          3D

 19 19  0  0  0  0  0  0  0  0999 V2000
   20.7630   12.6440   14.1350 C   0  0  0  0  0  2  0  0  0  0  0  0
   22.0890   11.9290   13.8780 C   0  0  0  0  0  2  0  0  0  0  0  0
   22.4700   12.0160   12.3940 C   0  0  0  0  0  2  0  0  0  0  0  0
   23.3040   13.1560   11.9900 N   0  0  0  0  0  0  0  0  0  0  0  0
   24.1910   13.6220   13.0510 C   0  0  0  0  0  1  0  0  0  0  0  0
   24.0480   12.9030   10.7590 C   0  0  0  0  0  1  0  0  0  0  0  0
   20.2890   13.3350   12.9500 N   0  0  0  0  0  0  0  0  0  0  0  0
   19.4930   14.4580   13.0430 C   0  0  0  0  0  0  0  0  0  0  0  0
   19.1260   14.9370   14.1130 O   0  0  0  0  0  0  0  0  0  0  0  0
   20.4360   12.8860   12.0580 H   0  0  0  0  0  0  0  0  0  0  0  0
   19.0270   15.0840   11.7750 C   0  0  0  0  0  0  0  0  0  0  0  0
   17.6710   15.3590   11.5460 C   0  0  0  0  0  3  0  0  0  0  0  0
   19.9620   15.3860   10.7710 C   0  0  0  0  0  0  0  0  0  0  0  0
   17.2790   15.9590   10.3470 C   0  0  0  0  0  0  0  0  0  0  0  0
   19.5620   15.9900    9.5800 C   0  0  0  0  0  3  0  0  0  0  0  0
   18.2160   16.2820    9.3670 C   0  0  0  0  0  3  0  0  0  0  0  0
   15.4480   16.3310   10.0470 Br  0  0  0  0  0  0  0  0  0  0  0  0
   21.3000   15.1160   10.8870 O   0  0  0  0  0  0  0  0  0  0  0  0
   21.7430   15.4220   10.0630 H   0  0  0  0  0  0  0  0  0  0  0  0
  2  1  1  0
  3  2  1  0
  4  3  1  0
  4  5  1  0
  6  4  1  0
  7  8  1  0
  7  1  1  0
  8  9  2  0
 10  7  1  0
 11  8  1  0
 12 11  1  0
 13 18  1  0
 13 11  2  0
 14 12  2  0
 15 13  1  0
 16 15  2  0
 16 14  1  0
 17 14  1  0
 19 18  1  0
M  RAD  8   1   3   2   3   3   3   5   2   6   2  12   2  15   2  16   2
M  END
>  <vina_score>  (4) 
-5.0149999999999997

>  <pose_id>  (4) 
4

$$$$

     RDKit          3D

 19 19  0  0  0  0  0  0  0  0999 V2000
   22.9900   10.5030   17.9210 C   0  0  0  0  0  2  0  0  0  0  0  0
   21.6000   10.5230   18.5550 C   0  0  0  0  0  2  0  0  0  0  0  0
   21.6910   10.8890   20.0430 C   0  0  0  0  0  2  0  0  0  0  0  0
   20.5540   11.6250   20.6140 N   0  0  0  0  0  0  0  0  0  0  0  0
   19.5620   12.0100   19.6160 C   0  0  0  0  0  1  0  0  0  0  0  0
   19.9280   10.9190   21.7290 C   0  0  0  0  0  1  0  0  0  0  0  0
   22.9600   10.9670   16.5470 N   0  0  0  0  0  0  0  0  0  0  0  0
   24.1090   11.3650   15.8970 C   0  0  0  0  0  0  0  0  0  0  0  0
   25.2170   11.3680   16.4270 O   0  0  0  0  0  0  0  0  0  0  0  0
   22.0550   11.1280   16.1290 H   0  0  0  0  0  0  0  0  0  0  0  0
   23.9800   11.8560   14.4970 C   0  0  0  0  0  0  0  0  0  0  0  0
   23.2940   13.0410   14.1940 C   0  0  0  0  0  3  0  0  0  0  0  0
   24.5350   11.1030   13.4480 C   0  0  0  0  0  0  0  0  0  0  0  0
   23.2070   13.4710   12.8680 C   0  0  0  0  0  0  0  0  0  0  0  0
   24.4490   11.5440   12.1290 C   0  0  0  0  0  3  0  0  0  0  0  0
   23.7860   12.7340   11.8360 C   0  0  0  0  0  3  0  0  0  0  0  0
   22.2850   15.0740   12.4670 Br  0  0  0  0  0  0  0  0  0  0  0  0
   25.1860    9.9130   13.6430 O   0  0  0  0  0  0  0  0  0  0  0  0
   24.5200    9.1910   13.5810 H   0  0  0  0  0  0  0  0  0  0  0  0
  1  2  1  0
  2  3  1  0
  3  4  1  0
  4  6  1  0
  5  4  1  0
  7  1  1  0
  8  9  2  0
  8  7  1  0
 10  7  1  0
 11  8  1  0
 12 11  1  0
 13 18  1  0
 13 11  2  0
 14 12  2  0
 15 13  1  0
 16 15  2  0
 16 14  1  0
 17 14  1  0
 19 18  1  0
M  RAD  8   1   3   2   3   3   3   5   2   6   2  12   2  15   2  16   2
M  END
>  <vina_score>  (5) 
-4.9299999999999997

>  <pose_id>  (5) 
5

$$$$
