
     RDKit          3D

 19 20  0  0  0  0  0  0  0  0999 V2000
   20.5570   15.0120   12.4780 N   0  0  0  0  0  0  0  0  0  0  0  0
   20.8260   15.6480   13.2260 H   0  0  0  0  0  0  0  0  0  0  0  0
   19.2100   15.1730   12.0960 C   0  0  0  0  0  0  0  0  0  0  0  0
   16.5410   15.4600   11.1650 C   0  0  0  0  0  0  0  0  0  0  0  0
   17.6260   15.7560   10.3310 C   0  0  0  0  0  3  0  0  0  0  0  0
   16.8080   15.0140   12.4660 C   0  0  0  0  0  0  0  0  0  0  0  0
   18.9390   15.6110   10.7920 C   0  0  0  0  0  3  0  0  0  0  0  0
   18.1240   14.8680   12.9210 C   0  0  0  0  0  3  0  0  0  0  0  0
   15.1400   15.6220   10.6470 C   0  0  0  0  0  1  0  0  0  0  0  0
   15.5280   14.6300   13.5650 Cl  0  0  0  0  0  0  0  0  0  0  0  0
   21.3940   13.9190   12.3100 C   0  0  0  0  0  0  0  0  0  0  0  0
   21.1720   12.6990   12.8320 C   0  0  0  0  0  3  0  0  0  0  0  0
   22.5880   14.1570   11.4020 C   0  0  0  0  0  2  0  0  0  0  0  0
   22.0720   11.5520   12.5700 C   0  0  0  0  0  0  0  0  0  0  0  0
   23.7690   13.1910   11.6370 C   0  0  2  0  0  0  0  0  0  0  0  0
   21.8120   10.4580   13.0680 O   0  0  0  0  0  0  0  0  0  0  0  0
   23.2510   11.7440   11.6430 C   0  0  0  0  0  2  0  0  0  0  0  0
   24.4810   13.5130   12.9680 C   0  0  0  0  0  1  0  0  0  0  0  0
   24.7910   13.3570   10.4970 C   0  0  0  0  0  1  0  0  0  0  0  0
  1  2  1  0
  3  1  1  0
  3  8  2  0
  4  6  2  0
  5  7  2  0
  5  4  1  0
  6  8  1  0
  6 10  1  0
  7  3  1  0
  9  4  1  0
 11  1  1  0
 11 12  2  0
 13 15  1  0
 13 11  1  0
 14 12  1  0
 14 16  2  0
 15 17  1  0
 15 18  1  1
 17 14  1  0
 19 15  1  0
M  RAD  8   5   2   7   2   8   2   9   2  12   2  13   3  17   3  18   2
M  RAD  1  19   2
M  END
>  <vina_score>  (1) 
-6.8380000000000001

>  <pose_id>  (1) 
1

$$$$

     RDKit          3D

 19 20  0  0  0  0  0  0  0  0999 V2000
   19.5200   15.4100   12.7700 N   0  0  0  0  0  0  0  0  0  0  0  0
   19.7180   16.3190   13.1830 H   0  0  0  0  0  0  0  0  0  0  0  0
   20.6760   14.7930   12.2500 C   0  0  0  0  0  0  0  0  0  0  0  0
   23.0700   13.7060   11.1760 C   0  0  0  0  0  0  0  0  0  0  0  0
   22.5770   14.9360   10.7260 C   0  0  0  0  0  3  0  0  0  0  0  0
   22.3550   13.0300   12.1730 C   0  0  0  0  0  0  0  0  0  0  0  0
   21.3990   15.4700   11.2580 C   0  0  0  0  0  3  0  0  0  0  0  0
   21.1770   13.5710   12.7060 C   0  0  0  0  0  3  0  0  0  0  0  0
   24.3380   13.1530   10.5900 C   0  0  0  0  0  1  0  0  0  0  0  0
   22.8890   11.5020   12.7850 Cl  0  0  0  0  0  0  0  0  0  0  0  0
   18.1880   15.1910   12.4520 C   0  0  0  0  0  0  0  0  0  0  0  0
   17.5250   15.8140   11.4620 C   0  0  0  0  0  3  0  0  0  0  0  0
   17.5040   14.1050   13.2650 C   0  0  0  0  0  2  0  0  0  0  0  0
   16.1160   15.4960   11.1310 C   0  0  0  0  0  0  0  0  0  0  0  0
   15.9660   14.2250   13.3200 C   0  0  2  0  0  0  0  0  0  0  0  0
   15.5660   16.0930   10.2080 O   0  0  0  0  0  0  0  0  0  0  0  0
   15.4160   14.3960   11.8960 C   0  0  0  0  0  2  0  0  0  0  0  0
   15.5430   15.4140   14.2070 C   0  0  0  0  0  1  0  0  0  0  0  0
   15.3810   12.9390   13.9350 C   0  0  0  0  0  1  0  0  0  0  0  0
  1  2  1  0
  3  8  2  0
  3  1  1  0
  4  6  2  0
  5  4  1  0
  5  7  2  0
  6  8  1  0
  6 10  1  0
  7  3  1  0
  9  4  1  0
 11  1  1  0
 11 13  1  0
 12 11  2  0
 13 15  1  0
 14 12  1  0
 14 17  1  0
 15 19  1  1
 15 18  1  0
 16 14  2  0
 17 15  1  0
M  RAD  8   5   2   7   2   8   2   9   2  12   2  13   3  17   3  18   2
M  RAD  1  19   2
M  END
>  <vina_score>  (2) 
-6.6779999999999999

>  <pose_id>  (2) 
2

$$$$

     RDKit          3D

 19 20  0  0  0  0  0  0  0  0999 V2000
   22.1920   13.7810   13.8410 N   0  0  0  0  0  0  0  0  0  0  0  0
   21.8410   14.0680   14.7520 H   0  0  0  0  0  0  0  0  0  0  0  0
   21.4940   14.3940   12.7800 C   0  0  0  0  0  0  0  0  0  0  0  0
   20.2150   15.5800   10.5380 C   0  0  0  0  0  0  0  0  0  0  0  0
   21.6110   15.5130   10.6130 C   0  0  0  0  0  3  0  0  0  0  0  0
   19.4680   15.0410   11.5940 C   0  0  0  0  0  0  0  0  0  0  0  0
   22.2380   14.9260   11.7180 C   0  0  0  0  0  3  0  0  0  0  0  0
   20.1010   14.4520   12.6960 C   0  0  0  0  0  3  0  0  0  0  0  0
   19.5650   16.2140    9.3410 C   0  0  0  0  0  1  0  0  0  0  0  0
   17.7380   15.0850   11.5850 Cl  0  0  0  0  0  0  0  0  0  0  0  0
   22.9380   12.6130   13.8430 C   0  0  0  0  0  0  0  0  0  0  0  0
   22.6950   11.5480   13.0580 C   0  0  0  0  0  3  0  0  0  0  0  0
   24.1470   12.6240   14.7640 C   0  0  0  0  0  2  0  0  0  0  0  0
   23.5630   10.3470   13.0630 C   0  0  0  0  0  0  0  0  0  0  0  0
   24.6380   11.2230   15.1870 C   0  0  2  0  0  0  0  0  0  0  0  0
   23.2950    9.4080   12.3160 O   0  0  0  0  0  0  0  0  0  0  0  0
   24.7940   10.3380   13.9410 C   0  0  0  0  0  2  0  0  0  0  0  0
   23.6520   10.5780   16.1840 C   0  0  0  0  0  1  0  0  0  0  0  0
   26.0030   11.3560   15.8860 C   0  0  0  0  0  1  0  0  0  0  0  0
  1 11  1  0
  1  2  1  0
  3  1  1  0
  4  5  1  0
  4  6  2  0
  5  7  2  0
  6  8  1  0
  7  3  1  0
  8  3  2  0
  9  4  1  0
 10  6  1  0
 11 13  1  0
 12 14  1  0
 12 11  2  0
 13 15  1  0
 14 17  1  0
 15 19  1  1
 15 18  1  0
 16 14  2  0
 17 15  1  0
M  RAD  8   5   2   7   2   8   2   9   2  12   2  13   3  17   3  18   2
M  RAD  1  19   2
M  END
>  <vina_score>  (3) 
-6.4710000000000001

>  <pose_id>  (3) 
3

$$$$

     RDKit          3D

 19 20  0  0  0  0  0  0  0  0999 V2000
   22.2210   13.4740   14.4830 N   0  0  0  0  0  0  0  0  0  0  0  0
   21.5950   13.5350   15.2830 H   0  0  0  0  0  0  0  0  0  0  0  0
   21.7030   14.1230   13.3440 C   0  0  0  0  0  0  0  0  0  0  0  0
   20.7950   15.3770   10.9630 C   0  0  0  0  0  0  0  0  0  0  0  0
   22.1640   15.2420   11.2240 C   0  0  0  0  0  3  0  0  0  0  0  0
   19.8880   14.8730   11.9040 C   0  0  0  0  0  0  0  0  0  0  0  0
   22.6070   14.6220   12.3970 C   0  0  0  0  0  3  0  0  0  0  0  0
   20.3380   14.2500   13.0750 C   0  0  0  0  0  3  0  0  0  0  0  0
   20.3430   16.0460    9.6950 C   0  0  0  0  0  1  0  0  0  0  0  0
   18.1790   15.0010   11.6640 Cl  0  0  0  0  0  0  0  0  0  0  0  0
   23.1790   12.4750   14.5660 C   0  0  0  0  0  0  0  0  0  0  0  0
   24.3890   12.6200   15.1350 C   0  0  0  0  0  3  0  0  0  0  0  0
   22.7440   11.1220   14.0270 C   0  0  0  0  0  2  0  0  0  0  0  0
   25.3500   11.4980   15.2460 C   0  0  0  0  0  0  0  0  0  0  0  0
   23.9090   10.1980   13.6130 C   0  0  2  0  0  0  0  0  0  0  0  0
   26.4380   11.6890   15.7850 O   0  0  0  0  0  0  0  0  0  0  0  0
   24.9370   10.1290   14.7520 C   0  0  0  0  0  2  0  0  0  0  0  0
   24.5750   10.7080   12.3170 C   0  0  0  0  0  1  0  0  0  0  0  0
   23.3600    8.7850   13.3420 C   0  0  0  0  0  1  0  0  0  0  0  0
  1 11  1  0
  1  2  1  0
  3  1  1  0
  4  5  1  0
  4  6  2  0
  5  7  2  0
  6  8  1  0
  7  3  1  0
  8  3  2  0
  9  4  1  0
 10  6  1  0
 11 12  2  0
 12 14  1  0
 13 11  1  0
 14 16  2  0
 15 13  1  0
 15 17  1  0
 17 14  1  0
 15 18  1  6
 19 15  1  0
M  RAD  8   5   2   7   2   8   2   9   2  12   2  13   3  17   3  18   2
M  RAD  1  19   2
M  END
>  <vina_score>  (4) 
-6.4669999999999996

>  <pose_id>  (4) 
4

$$$$
