
     RDKit          3D

 32 35  0  0  1  0  0  0  0  0999 V2000
   23.2230    9.3660   15.8640 C   0  0  0  0  0  3  0  0  0  0  0  0
   23.0160    8.0090   16.5570 C   0  0  0  0  0  2  0  0  0  0  0  0
   22.6580    8.1900   18.0290 C   0  0  0  0  0  2  0  0  0  0  0  0
   21.4290    8.9720   18.2460 N   0  0  0  0  0  0  0  0  0  0  0  0
   21.1950    9.9870   17.2050 C   0  0  0  0  0  2  0  0  0  0  0  0
   22.4950   10.5080   16.6000 C   0  0  0  0  0  2  0  0  0  0  0  0
   24.6410    9.6580   15.6600 N   0  0  0  0  0  0  0  0  0  0  0  0
   25.2340   10.7420   15.0360 C   0  0  0  0  0  0  0  0  0  0  0  0
   26.5470   10.7350   15.4640 C   0  0  0  0  0  3  0  0  0  0  0  0
   26.6910    9.5530   16.2030 C   0  0  0  0  0  3  0  0  0  0  0  0
   25.5480    8.8790   16.3060 N   0  0  0  0  0  0  0  0  0  0  0  0
   24.6690   11.6890   14.1990 N   0  0  0  0  0  0  0  0  0  0  0  0
   24.3700   11.4870   12.8650 C   0  0  0  0  0  0  0  0  0  0  0  0
   24.5380   10.4300   12.2620 O   0  0  0  0  0  0  0  0  0  0  0  0
   24.7500   12.6600   14.4880 H   0  0  0  0  0  0  0  0  0  0  0  0
   23.8450   12.6780   12.1040 C   0  0  0  0  0  0  0  0  0  0  0  0
   22.9050   13.6070   12.5990 C   0  0  0  0  0  0  0  0  0  0  0  0
   22.5000   14.6750   11.7810 C   0  0  0  0  0  3  0  0  0  0  0  0
   23.0080   14.8220   10.4880 C   0  0  0  0  0  3  0  0  0  0  0  0
   24.3450   12.8450   10.7960 C   0  0  0  0  0  3  0  0  0  0  0  0
   23.9280   13.9080    9.9940 C   0  0  0  0  0  3  0  0  0  0  0  0
   22.4470   13.4390   13.8830 O   0  0  0  0  0  0  0  0  0  0  0  0
   21.0820   13.0670   14.0550 C   0  0  0  0  0  1  0  0  0  0  0  0
   20.2620    8.1010   18.4460 C   0  0  0  0  0  2  0  0  0  0  0  0
   19.2110    8.8060   19.2610 C   0  0  0  0  0  0  0  0  0  0  0  0
   17.8630    8.8390   18.9560 C   0  0  0  0  0  3  0  0  0  0  0  0
   19.4670    9.5320   20.4770 C   0  0  0  0  0  3  0  0  0  0  0  0
   16.9480    9.7300   20.0890 S   0  0  0  0  0  0  0  0  0  0  0  0
   18.3330   10.1020   21.0250 C   0  0  0  0  0  0  0  0  0  0  0  0
   18.1940   10.9280   22.2190 C   0  0  0  0  0  0  0  0  0  0  0  0
   19.1330   11.4950   22.7820 O   0  0  0  0  0  0  0  0  0  0  0  0
   16.7960   11.0900   22.7720 C   0  0  0  0  0  1  0  0  0  0  0  0
  1  7  1  0
  1  2  1  0
  1  6  1  0
  2  3  1  0
  3  4  1  0
  4 24  1  0
  5  4  1  0
  6  5  1  0
  7 11  1  0
  8  9  2  0
  8  7  1  0
  9 10  1  0
 10 11  2  0
 12 15  1  0
 12  8  1  0
 13 12  1  0
 14 13  2  0
 16 17  1  0
 16 13  1  0
 17 22  1  0
 18 17  2  0
 19 18  1  0
 20 16  2  0
 21 19  2  0
 21 20  1  0
 22 23  1  0
 24 25  1  0
 25 27  1  0
 26 25  2  0
 26 28  1  0
 27 29  2  0
 28 29  1  0
 29 30  1  0
 30 32  1  0
 30 31  2  0
M  RAD  8   1   2   2   3   3   3   5   3   6   3   9   2  10   2  18   2
M  RAD  8  19   2  20   2  21   2  23   2  24   3  26   2  27   2  32   2
M  END
>  <vina_score>  (1) 
-7.6130000000000004

>  <pose_id>  (1) 
1

$$$$

     RDKit          3D

 32 35  0  0  1  0  0  0  0  0999 V2000
   22.9520    9.0690   15.9390 C   0  0  0  0  0  3  0  0  0  0  0  0
   22.5330    8.0080   16.9700 C   0  0  0  0  0  2  0  0  0  0  0  0
   22.2610    8.6390   18.3320 C   0  0  0  0  0  2  0  0  0  0  0  0
   21.1960    9.6560   18.3100 N   0  0  0  0  0  0  0  0  0  0  0  0
   21.1100   10.3790   17.0290 C   0  0  0  0  0  2  0  0  0  0  0  0
   22.4610   10.4770   16.3270 C   0  0  0  0  0  2  0  0  0  0  0  0
   24.3920    9.0380   15.6860 N   0  0  0  0  0  0  0  0  0  0  0  0
   25.1570    9.8480   14.8660 C   0  0  0  0  0  0  0  0  0  0  0  0
   26.4590    9.6710   15.2920 C   0  0  0  0  0  3  0  0  0  0  0  0
   26.4020    8.6460   16.2450 C   0  0  0  0  0  3  0  0  0  0  0  0
   25.1570    8.2370   16.4740 N   0  0  0  0  0  0  0  0  0  0  0  0
   24.7540   10.7090   13.8590 N   0  0  0  0  0  0  0  0  0  0  0  0
   24.6510   12.0810   13.9870 C   0  0  0  0  0  0  0  0  0  0  0  0
   24.9360   12.7140   15.0010 O   0  0  0  0  0  0  0  0  0  0  0  0
   24.2290   10.2990   13.0910 H   0  0  0  0  0  0  0  0  0  0  0  0
   24.1020   12.8290   12.7990 C   0  0  0  0  0  0  0  0  0  0  0  0
   24.3650   12.5120   11.4480 C   0  0  0  0  0  0  0  0  0  0  0  0
   23.7870   13.2950   10.4350 C   0  0  0  0  0  3  0  0  0  0  0  0
   22.9680   14.3830   10.7470 C   0  0  0  0  0  3  0  0  0  0  0  0
   23.2740   13.9310   13.0910 C   0  0  0  0  0  3  0  0  0  0  0  0
   22.7120   14.7040   12.0730 C   0  0  0  0  0  3  0  0  0  0  0  0
   25.1570   11.4210   11.1850 O   0  0  0  0  0  0  0  0  0  0  0  0
   24.5650   10.3260   10.4900 C   0  0  0  0  0  1  0  0  0  0  0  0
   19.9010    9.0930   18.7190 C   0  0  0  0  0  2  0  0  0  0  0  0
   19.3750    9.8100   19.9340 C   0  0  0  0  0  0  0  0  0  0  0  0
   20.1520   10.5120   20.8360 C   0  0  0  0  0  3  0  0  0  0  0  0
   17.9880    9.8710   20.3140 C   0  0  0  0  0  3  0  0  0  0  0  0
   19.2390   11.2020   22.1020 S   0  0  0  0  0  0  0  0  0  0  0  0
   17.7700   10.5790   21.4810 C   0  0  0  0  0  0  0  0  0  0  0  0
   16.5230   10.8300   22.1950 C   0  0  0  0  0  0  0  0  0  0  0  0
   16.4590   11.3050   23.3310 O   0  0  0  0  0  0  0  0  0  0  0  0
   15.2440   10.4870   21.4660 C   0  0  0  0  0  1  0  0  0  0  0  0
  1  7  1  0
  1  6  1  0
  1  2  1  0
  2  3  1  0
  4  3  1  0
  4 24  1  0
  5  4  1  0
  6  5  1  0
  7 11  1  0
  8  9  2  0
  8  7  1  0
  9 10  1  0
 10 11  2  0
 12 13  1  0
 12  8  1  0
 13 14  2  0
 15 12  1  0
 16 20  2  0
 16 13  1  0
 17 16  1  0
 18 19  1  0
 18 17  2  0
 19 21  2  0
 21 20  1  0
 22 17  1  0
 23 22  1  0
 24 25  1  0
 25 27  1  0
 25 26  2  0
 26 28  1  0
 27 29  2  0
 29 28  1  0
 29 30  1  0
 30 31  2  0
 32 30  1  0
M  RAD  8   1   2   2   3   3   3   5   3   6   3   9   2  10   2  18   2
M  RAD  8  19   2  20   2  21   2  23   2  24   3  26   2  27   2  32   2
M  END
>  <vina_score>  (2) 
-7.5510000000000002

>  <pose_id>  (2) 
2

$$$$

     RDKit          3D

 32 35  0  0  1  0  0  0  0  0999 V2000
   17.8870   13.1760   13.8520 C   0  0  0  0  0  3  0  0  0  0  0  0
   19.0120   12.9600   14.8770 C   0  0  0  0  0  2  0  0  0  0  0  0
   18.4910   13.1000   16.3050 C   0  0  0  0  0  2  0  0  0  0  0  0
   17.4190   12.1470   16.6390 N   0  0  0  0  0  0  0  0  0  0  0  0
   16.5820   11.7860   15.4820 C   0  0  0  0  0  2  0  0  0  0  0  0
   16.4950   12.9110   14.4550 C   0  0  0  0  0  2  0  0  0  0  0  0
   17.9740   14.4950   13.2240 N   0  0  0  0  0  0  0  0  0  0  0  0
   18.8750   14.9620   12.2850 C   0  0  0  0  0  0  0  0  0  0  0  0
   18.2860   16.0890   11.7450 C   0  0  0  0  0  3  0  0  0  0  0  0
   17.1320   16.3080   12.5100 C   0  0  0  0  0  3  0  0  0  0  0  0
   16.9470   15.3610   13.4260 N   0  0  0  0  0  0  0  0  0  0  0  0
   20.0900   14.4280   11.8910 N   0  0  0  0  0  0  0  0  0  0  0  0
   21.2930   14.6420   12.5360 C   0  0  0  0  0  0  0  0  0  0  0  0
   21.4310   15.3080   13.5590 O   0  0  0  0  0  0  0  0  0  0  0  0
   20.1590   14.1100   10.9280 H   0  0  0  0  0  0  0  0  0  0  0  0
   22.5190   14.0440   11.8930 C   0  0  0  0  0  0  0  0  0  0  0  0
   23.3340   13.0460   12.4700 C   0  0  0  0  0  0  0  0  0  0  0  0
   24.4500   12.5760   11.7590 C   0  0  0  0  0  3  0  0  0  0  0  0
   24.7670   13.0890   10.4990 C   0  0  0  0  0  3  0  0  0  0  0  0
   22.8560   14.5470   10.6200 C   0  0  0  0  0  3  0  0  0  0  0  0
   23.9730   14.0740    9.9290 C   0  0  0  0  0  3  0  0  0  0  0  0
   22.9740   12.5540   13.7020 O   0  0  0  0  0  0  0  0  0  0  0  0
   24.0180   12.1160   14.5680 C   0  0  0  0  0  1  0  0  0  0  0  0
   17.9450   10.9630   17.3350 C   0  0  0  0  0  2  0  0  0  0  0  0
   17.4940   10.9530   18.7720 C   0  0  0  0  0  0  0  0  0  0  0  0
   16.2240   10.6130   19.2000 C   0  0  0  0  0  3  0  0  0  0  0  0
   18.3300   11.2850   19.8950 C   0  0  0  0  0  3  0  0  0  0  0  0
   16.0480   10.7100   20.8950 S   0  0  0  0  0  0  0  0  0  0  0  0
   17.6710   11.2140   21.1090 C   0  0  0  0  0  0  0  0  0  0  0  0
   18.1630   11.5040   22.4510 C   0  0  0  0  0  0  0  0  0  0  0  0
   19.3550   11.6480   22.7350 O   0  0  0  0  0  0  0  0  0  0  0  0
   17.1240   11.6400   23.5400 C   0  0  0  0  0  1  0  0  0  0  0  0
  1  7  1  0
  1  6  1  0
  1  2  1  0
  2  3  1  0
  3  4  1  0
  4 24  1  0
  5  4  1  0
  6  5  1  0
  7 11  1  0
  8  7  1  0
  9  8  2  0
  9 10  1  0
 10 11  2  0
 12  8  1  0
 12 13  1  0
 13 14  2  0
 15 12  1  0
 16 17  1  0
 16 13  1  0
 17 22  1  0
 18 17  2  0
 19 18  1  0
 20 16  2  0
 21 19  2  0
 21 20  1  0
 22 23  1  0
 24 25  1  0
 25 26  2  0
 25 27  1  0
 26 28  1  0
 27 29  2  0
 28 29  1  0
 29 30  1  0
 30 31  2  0
 30 32  1  0
M  RAD  8   1   2   2   3   3   3   5   3   6   3   9   2  10   2  18   2
M  RAD  8  19   2  20   2  21   2  23   2  24   3  26   2  27   2  32   2
M  END
>  <vina_score>  (3) 
-7.4699999999999998

>  <pose_id>  (3) 
3

$$$$

     RDKit          3D

 32 35  0  0  1  0  0  0  0  0999 V2000
   18.0860   13.3980   15.6250 C   0  0  0  0  0  3  0  0  0  0  0  0
   17.9660   12.8890   17.0700 C   0  0  0  0  0  2  0  0  0  0  0  0
   16.9710   11.7350   17.1680 C   0  0  0  0  0  2  0  0  0  0  0  0
   17.3300   10.5750   16.3350 N   0  0  0  0  0  0  0  0  0  0  0  0
   18.0550   10.9430   15.1070 C   0  0  0  0  0  2  0  0  0  0  0  0
   17.6670   12.3280   14.5980 C   0  0  0  0  0  2  0  0  0  0  0  0
   17.3660   14.6570   15.4330 N   0  0  0  0  0  0  0  0  0  0  0  0
   17.4840   15.5900   14.4190 C   0  0  0  0  0  0  0  0  0  0  0  0
   16.3340   16.3520   14.4910 C   0  0  0  0  0  3  0  0  0  0  0  0
   15.6710   15.9170   15.6460 C   0  0  0  0  0  3  0  0  0  0  0  0
   16.3010   14.9070   16.2400 N   0  0  0  0  0  0  0  0  0  0  0  0
   18.4860   15.7390   13.4750 N   0  0  0  0  0  0  0  0  0  0  0  0
   18.4770   15.1710   12.2160 C   0  0  0  0  0  0  0  0  0  0  0  0
   17.5630   14.4880   11.7620 O   0  0  0  0  0  0  0  0  0  0  0  0
   19.3980   16.0280   13.8200 H   0  0  0  0  0  0  0  0  0  0  0  0
   19.7100   15.3790   11.3730 C   0  0  0  0  0  0  0  0  0  0  0  0
   21.0050   14.9230   11.7030 C   0  0  0  0  0  0  0  0  0  0  0  0
   22.0690   15.1870   10.8250 C   0  0  0  0  0  3  0  0  0  0  0  0
   21.8630   15.8980    9.6400 C   0  0  0  0  0  3  0  0  0  0  0  0
   19.5250   16.0950   10.1730 C   0  0  0  0  0  3  0  0  0  0  0  0
   20.5930   16.3540    9.3140 C   0  0  0  0  0  3  0  0  0  0  0  0
   21.1590   14.2090   12.8660 O   0  0  0  0  0  0  0  0  0  0  0  0
   21.4890   12.8270   12.7550 C   0  0  0  0  0  1  0  0  0  0  0  0
   18.0400    9.5480   17.1120 C   0  0  0  0  0  2  0  0  0  0  0  0
   17.7650    9.7180   18.5830 C   0  0  0  0  0  0  0  0  0  0  0  0
   16.6510    9.2320   19.2410 C   0  0  0  0  0  3  0  0  0  0  0  0
   18.6340   10.3990   19.5060 C   0  0  0  0  0  3  0  0  0  0  0  0
   16.6500    9.6030   20.9070 S   0  0  0  0  0  0  0  0  0  0  0  0
   18.1460   10.4300   20.7990 C   0  0  0  0  0  0  0  0  0  0  0  0
   18.7140   11.0470   21.9920 C   0  0  0  0  0  0  0  0  0  0  0  0
   19.9140   11.0250   22.2780 O   0  0  0  0  0  0  0  0  0  0  0  0
   17.7500   11.7600   22.9120 C   0  0  0  0  0  1  0  0  0  0  0  0
  1  6  1  0
  1  2  1  0
  2  3  1  0
  4 24  1  0
  4  3  1  0
  5  4  1  0
  6  5  1  0
  7  1  1  0
  7 11  1  0
  8  9  2  0
  8  7  1  0
  9 10  1  0
 10 11  2  0
 12 15  1  0
 12  8  1  0
 13 12  1  0
 14 13  2  0
 16 17  1  0
 16 13  1  0
 17 22  1  0
 18 17  2  0
 19 18  1  0
 20 16  2  0
 21 19  2  0
 21 20  1  0
 23 22  1  0
 24 25  1  0
 25 26  2  0
 25 27  1  0
 26 28  1  0
 27 29  2  0
 29 28  1  0
 29 30  1  0
 30 31  2  0
 30 32  1  0
M  RAD  8   1   2   2   3   3   3   5   3   6   3   9   2  10   2  18   2
M  RAD  8  19   2  20   2  21   2  23   2  24   3  26   2  27   2  32   2
M  END
>  <vina_score>  (4) 
-7.4530000000000003

>  <pose_id>  (4) 
4

$$$$

     RDKit          3D

 32 35  0  0  1  0  0  0  0  0999 V2000
   16.1450   15.1950   13.6360 C   0  0  0  0  0  3  0  0  0  0  0  0
   15.8070   13.6960   13.5900 C   0  0  0  0  0  2  0  0  0  0  0  0
   16.8590   12.8690   14.3240 C   0  0  0  0  0  2  0  0  0  0  0  0
   17.0070   13.2300   15.7440 N   0  0  0  0  0  0  0  0  0  0  0  0
   16.7320   14.6510   16.0150 C   0  0  0  0  0  2  0  0  0  0  0  0
   17.0640   15.5430   14.8220 C   0  0  0  0  0  2  0  0  0  0  0  0
   16.6860   15.6670   12.3620 N   0  0  0  0  0  0  0  0  0  0  0  0
   17.8670   15.3220   11.7280 C   0  0  0  0  0  0  0  0  0  0  0  0
   17.7050   15.7220   10.4160 C   0  0  0  0  0  3  0  0  0  0  0  0
   16.4900   16.4200   10.3870 C   0  0  0  0  0  3  0  0  0  0  0  0
   15.8760   16.4140   11.5680 N   0  0  0  0  0  0  0  0  0  0  0  0
   18.9770   14.6700   12.2360 N   0  0  0  0  0  0  0  0  0  0  0  0
   20.2530   14.7560   11.7120 C   0  0  0  0  0  0  0  0  0  0  0  0
   20.5690   15.4490   10.7470 O   0  0  0  0  0  0  0  0  0  0  0  0
   18.8020   13.8650   12.8320 H   0  0  0  0  0  0  0  0  0  0  0  0
   21.3070   13.8920   12.3560 C   0  0  0  0  0  0  0  0  0  0  0  0
   21.0910   12.5930   12.8670 C   0  0  0  0  0  0  0  0  0  0  0  0
   22.1650   11.8960   13.4440 C   0  0  0  0  0  3  0  0  0  0  0  0
   23.4350   12.4730   13.5260 C   0  0  0  0  0  3  0  0  0  0  0  0
   22.5960   14.4550   12.4490 C   0  0  0  0  0  3  0  0  0  0  0  0
   23.6520   13.7510   13.0310 C   0  0  0  0  0  3  0  0  0  0  0  0
   19.8330   12.0550   12.7470 O   0  0  0  0  0  0  0  0  0  0  0  0
   19.6710   10.6750   13.0640 C   0  0  0  0  0  1  0  0  0  0  0  0
   16.2260   12.3370   16.6140 C   0  0  0  0  0  2  0  0  0  0  0  0
   17.0310   11.9440   17.8240 C   0  0  0  0  0  0  0  0  0  0  0  0
   16.4960   11.5000   19.0190 C   0  0  0  0  0  3  0  0  0  0  0  0
   18.4680   11.9670   17.8960 C   0  0  0  0  0  3  0  0  0  0  0  0
   17.6890   11.1410   20.1860 S   0  0  0  0  0  0  0  0  0  0  0  0
   18.9620   11.5730   19.1250 C   0  0  0  0  0  0  0  0  0  0  0  0
   20.3430   11.4970   19.5900 C   0  0  0  0  0  0  0  0  0  0  0  0
   20.7740   12.0880   20.5820 O   0  0  0  0  0  0  0  0  0  0  0  0
   21.2800   10.6200   18.7890 C   0  0  0  0  0  1  0  0  0  0  0  0
  1  7  1  0
  1  6  1  0
  2  1  1  0
  2  3  1  0
  3  4  1  0
  4  5  1  0
  4 24  1  0
  6  5  1  0
  8 12  1  0
  8  7  1  0
  9  8  2  0
 10  9  1  0
 10 11  2  0
 11  7  1  0
 12 15  1  0
 13 12  1  0
 13 16  1  0
 14 13  2  0
 16 20  2  0
 16 17  1  0
 17 18  2  0
 18 19  1  0
 20 21  1  0
 21 19  2  0
 22 17  1  0
 22 23  1  0
 24 25  1  0
 25 27  1  0
 25 26  2  0
 26 28  1  0
 27 29  2  0
 29 30  1  0
 29 28  1  0
 30 31  2  0
 32 30  1  0
M  RAD  8   1   2   2   3   3   3   5   3   6   3   9   2  10   2  18   2
M  RAD  8  19   2  20   2  21   2  23   2  24   3  26   2  27   2  32   2
M  END
>  <vina_score>  (5) 
-7.3869999999999996

>  <pose_id>  (5) 
5

$$$$
