
     RDKit          3D

 19 19  0  0  0  0  0  0  0  0999 V2000
   17.7900   14.6040   12.6220 C   0  0  0  0  0  0  0  0  0  0  0  0
   17.6190   13.3940   12.6950 O   0  0  0  0  0  0  0  0  0  0  0  0
   17.2040   15.5370   13.4510 N   0  0  0  0  0  0  0  0  0  0  0  0
   17.2190   16.4920   13.1140 H   0  0  0  0  0  0  0  0  0  0  0  0
   18.6220   15.1530   11.5260 C   0  0  0  0  0  0  0  0  0  0  0  0
   20.8860   15.4910   10.6910 C   0  0  0  0  0  0  0  0  0  0  0  0
   20.3650   16.1090    9.5540 C   0  0  0  0  0  3  0  0  0  0  0  0
   20.0120   15.0190   11.6720 C   0  0  0  0  0  3  0  0  0  0  0  0
   18.9800   16.2620    9.4090 C   0  0  0  0  0  3  0  0  0  0  0  0
   18.1050   15.7900   10.3930 C   0  0  0  0  0  0  0  0  0  0  0  0
   16.2530   16.1150   10.1250 Br  0  0  0  0  0  0  0  0  0  0  0  0
   22.2100   15.2850   10.9560 O   0  0  0  0  0  0  0  0  0  0  0  0
   22.5980   15.2440   12.3240 C   0  0  0  0  0  1  0  0  0  0  0  0
   16.1520   15.2170   14.4340 C   0  0  2  0  0  0  0  0  0  0  0  0
   16.8290   14.4910   15.6140 C   0  0  0  0  0  1  0  0  0  0  0  0
   15.0960   14.2640   13.8460 C   0  0  0  0  0  1  0  0  0  0  0  0
   15.4650   16.5150   14.9340 C   0  0  0  0  0  2  0  0  0  0  0  0
   14.3360   16.2270   15.7650 O   0  0  0  0  0  0  0  0  0  0  0  0
   13.5670   16.6770   15.3760 H   0  0  0  0  0  0  0  0  0  0  0  0
  1  2  2  0
  1  3  1  0
  3 14  1  0
  4  3  1  0
  5  8  1  0
  5  1  1  0
  6 12  1  0
  6  8  2  0
  7  6  1  0
  9  7  2  0
  9 10  1  0
 10  5  2  0
 11 10  1  0
 12 13  1  0
 14 17  1  0
 14 15  1  1
 16 14  1  0
 17 18  1  0
 19 18  1  0
M  RAD  7   7   2   8   2   9   2  13   2  15   2  16   2  17   3
M  END
>  <vina_score>  (1) 
-6.0300000000000002

>  <pose_id>  (1) 
1

$$$$

     RDKit          3D

 19 19  0  0  0  0  0  0  0  0999 V2000
   17.6490   14.6600   12.7570 C   0  0  0  0  0  0  0  0  0  0  0  0
   17.2340   13.5080   12.7470 O   0  0  0  0  0  0  0  0  0  0  0  0
   17.5040   15.5430   13.8060 N   0  0  0  0  0  0  0  0  0  0  0  0
   17.6510   16.5190   13.5800 H   0  0  0  0  0  0  0  0  0  0  0  0
   18.2940   15.2080   11.5410 C   0  0  0  0  0  0  0  0  0  0  0  0
   20.3990   15.5900   10.3750 C   0  0  0  0  0  0  0  0  0  0  0  0
   19.6980   16.1700    9.3190 C   0  0  0  0  0  3  0  0  0  0  0  0
   19.6930   15.1150   11.4830 C   0  0  0  0  0  3  0  0  0  0  0  0
   18.3030   16.2820    9.3770 C   0  0  0  0  0  3  0  0  0  0  0  0
   17.5970   15.8070   10.4870 C   0  0  0  0  0  0  0  0  0  0  0  0
   15.7170   16.0750   10.4900 Br  0  0  0  0  0  0  0  0  0  0  0  0
   21.7530   15.4260   10.4460 O   0  0  0  0  0  0  0  0  0  0  0  0
   22.3560   15.5550   11.7280 C   0  0  0  0  0  1  0  0  0  0  0  0
   16.6760   15.2760   14.9960 C   0  0  2  0  0  0  0  0  0  0  0  0
   15.2540   14.9370   14.5040 C   0  0  0  0  0  1  0  0  0  0  0  0
   16.5710   16.5140   15.9040 C   0  0  0  0  0  1  0  0  0  0  0  0
   17.2550   14.0840   15.8030 C   0  0  0  0  0  2  0  0  0  0  0  0
   16.5380   12.8730   15.5410 O   0  0  0  0  0  0  0  0  0  0  0  0
   15.8440   13.0800   14.8930 H   0  0  0  0  0  0  0  0  0  0  0  0
  1  3  1  0
  2  1  2  0
  3 14  1  0
  4  3  1  0
  5  1  1  0
  6 12  1  0
  6  8  2  0
  7  9  2  0
  7  6  1  0
  8  5  1  0
  9 10  1  0
 10 11  1  0
 10  5  2  0
 12 13  1  0
 14 17  1  0
 14 16  1  1
 15 14  1  0
 18 17  1  0
 19 18  1  0
M  RAD  7   7   2   8   2   9   2  13   2  15   2  16   2  17   3
M  END
>  <vina_score>  (2) 
-5.9509999999999996

>  <pose_id>  (2) 
2

$$$$

     RDKit          3D

 19 19  0  0  0  0  0  0  0  0999 V2000
   17.5670   14.8050   12.9490 C   0  0  0  0  0  0  0  0  0  0  0  0
   17.2560   15.6240   13.8050 O   0  0  0  0  0  0  0  0  0  0  0  0
   17.4990   13.4370   13.1030 N   0  0  0  0  0  0  0  0  0  0  0  0
   18.0300   12.8940   12.4330 H   0  0  0  0  0  0  0  0  0  0  0  0
   18.1360   15.2790   11.6660 C   0  0  0  0  0  0  0  0  0  0  0  0
   20.1710   15.6430   10.3780 C   0  0  0  0  0  0  0  0  0  0  0  0
   19.4030   16.1120    9.3130 C   0  0  0  0  0  3  0  0  0  0  0  0
   19.5340   15.2310   11.5500 C   0  0  0  0  0  3  0  0  0  0  0  0
   18.0090   16.1790    9.4270 C   0  0  0  0  0  3  0  0  0  0  0  0
   17.3700   15.7670   10.6020 C   0  0  0  0  0  0  0  0  0  0  0  0
   15.4830   15.9680   10.6720 Br  0  0  0  0  0  0  0  0  0  0  0  0
   21.5330   15.5330   10.3980 O   0  0  0  0  0  0  0  0  0  0  0  0
   22.1530   15.3890   11.6700 C   0  0  0  0  0  1  0  0  0  0  0  0
   17.2040   12.7670   14.3840 C   0  0  2  0  0  0  0  0  0  0  0  0
   17.2580   11.2470   14.1330 C   0  0  0  0  0  1  0  0  0  0  0  0
   15.7900   13.1060   14.8890 C   0  0  0  0  0  1  0  0  0  0  0  0
   18.2520   13.1640   15.4570 C   0  0  0  0  0  2  0  0  0  0  0  0
   17.7020   14.0650   16.4230 O   0  0  0  0  0  0  0  0  0  0  0  0
   16.9090   14.4650   16.0280 H   0  0  0  0  0  0  0  0  0  0  0  0
  1  3  1  0
  1  2  2  0
  3 14  1  0
  4  3  1  0
  5  1  1  0
  6 12  1  0
  6  8  2  0
  7  9  2  0
  7  6  1  0
  8  5  1  0
  9 10  1  0
 10 11  1  0
 10  5  2  0
 12 13  1  0
 14 16  1  1
 14 17  1  0
 15 14  1  0
 17 18  1  0
 19 18  1  0
M  RAD  7   7   2   8   2   9   2  13   2  15   2  16   2  17   3
M  END
>  <vina_score>  (3) 
-5.7320000000000002

>  <pose_id>  (3) 
3

$$$$

     RDKit          3D

 19 19  0  0  0  0  0  0  0  0999 V2000
   21.8400   14.5730   12.1330 C   0  0  0  0  0  0  0  0  0  0  0  0
   22.5850   15.4010   12.6420 O   0  0  0  0  0  0  0  0  0  0  0  0
   22.1360   13.2360   11.9740 N   0  0  0  0  0  0  0  0  0  0  0  0
   21.5580   12.7360   11.3100 H   0  0  0  0  0  0  0  0  0  0  0  0
   20.5470   15.0160   11.5620 C   0  0  0  0  0  0  0  0  0  0  0  0
   18.1230   14.9990   11.8130 C   0  0  0  0  0  0  0  0  0  0  0  0
   18.0070   15.7680   10.6560 C   0  0  0  0  0  3  0  0  0  0  0  0
   19.3930   14.6240   12.2590 C   0  0  0  0  0  3  0  0  0  0  0  0
   19.1530   16.1490    9.9460 C   0  0  0  0  0  3  0  0  0  0  0  0
   20.4240   15.7720   10.3920 C   0  0  0  0  0  0  0  0  0  0  0  0
   21.9010   16.2830    9.3130 Br  0  0  0  0  0  0  0  0  0  0  0  0
   17.0900   14.5590   12.5920 O   0  0  0  0  0  0  0  0  0  0  0  0
   15.7790   14.6630   12.0490 C   0  0  0  0  0  1  0  0  0  0  0  0
   23.4630   12.6510   12.2410 C   0  0  2  0  0  0  0  0  0  0  0  0
   23.3180   11.1180   12.1560 C   0  0  0  0  0  1  0  0  0  0  0  0
   23.9600   12.9930   13.6570 C   0  0  0  0  0  1  0  0  0  0  0  0
   24.4940   13.1440   11.1920 C   0  0  0  0  0  2  0  0  0  0  0  0
   25.0460   12.0560   10.4430 O   0  0  0  0  0  0  0  0  0  0  0  0
   24.4400   11.8740    9.7050 H   0  0  0  0  0  0  0  0  0  0  0  0
  1  2  2  0
  3  1  1  0
  3 14  1  0
  4  3  1  0
  5  1  1  0
  5  8  1  0
  6  8  2  0
  6 12  1  0
  7  6  1  0
  9 10  1  0
  9  7  2  0
 10  5  2  0
 11 10  1  0
 13 12  1  0
 14 16  1  1
 15 14  1  0
 17 14  1  0
 18 17  1  0
 19 18  1  0
M  RAD  7   7   2   8   2   9   2  13   2  15   2  16   2  17   3
M  END
>  <vina_score>  (4) 
-5.6920000000000002

>  <pose_id>  (4) 
4

$$$$

     RDKit          3D

 19 19  0  0  0  0  0  0  0  0999 V2000
   19.3770   13.0090   13.4020 C   0  0  0  0  0  0  0  0  0  0  0  0
   19.0020   11.9260   12.9680 O   0  0  0  0  0  0  0  0  0  0  0  0
   18.6520   13.8120   14.2560 N   0  0  0  0  0  0  0  0  0  0  0  0
   18.9570   14.7750   14.3150 H   0  0  0  0  0  0  0  0  0  0  0  0
   20.6670   13.5680   12.9350 C   0  0  0  0  0  0  0  0  0  0  0  0
   23.0920   13.4990   13.1630 C   0  0  0  0  0  0  0  0  0  0  0  0
   23.2030   14.4800   12.1780 C   0  0  0  0  0  3  0  0  0  0  0  0
   21.8240   13.0500   13.5380 C   0  0  0  0  0  3  0  0  0  0  0  0
   22.0530   15.0130   11.5830 C   0  0  0  0  0  3  0  0  0  0  0  0
   20.7830   14.5640   11.9610 C   0  0  0  0  0  0  0  0  0  0  0  0
   19.2920   15.4080   11.1400 Br  0  0  0  0  0  0  0  0  0  0  0  0
   24.1290   12.9030   13.8230 O   0  0  0  0  0  0  0  0  0  0  0  0
   23.8360   12.2910   15.0730 C   0  0  0  0  0  1  0  0  0  0  0  0
   17.2490   13.5570   14.6320 C   0  0  2  0  0  0  0  0  0  0  0  0
   16.8010   14.7090   15.5540 C   0  0  0  0  0  1  0  0  0  0  0  0
   17.1030   12.2440   15.4220 C   0  0  0  0  0  1  0  0  0  0  0  0
   16.3500   13.5100   13.3680 C   0  0  0  0  0  2  0  0  0  0  0  0
   16.1440   12.1670   12.9180 O   0  0  0  0  0  0  0  0  0  0  0  0
   17.0180   11.7840   12.7370 H   0  0  0  0  0  0  0  0  0  0  0  0
  1  3  1  0
  2  1  2  0
  3  4  1  0
  3 14  1  0
  5  1  1  0
  5  8  1  0
  6  8  2  0
  6 12  1  0
  7  6  1  0
  9 10  1  0
  9  7  2  0
 10  5  2  0
 11 10  1  0
 12 13  1  0
 14 16  1  1
 14 15  1  0
 17 14  1  0
 18 17  1  0
 19 18  1  0
M  RAD  7   7   2   8   2   9   2  13   2  15   2  16   2  17   3
M  END
>  <vina_score>  (5) 
-4.9649999999999999

>  <pose_id>  (5) 
5

$$$$
