
     RDKit          3D

 22 23  0  0  1  0  0  0  0  0999 V2000
   17.3680   11.1690   19.9600 N   0  0  0  0  0  0  0  0  0  0  0  0
   16.6190   10.9670   18.8230 C   0  0  0  0  0  0  0  0  0  0  0  0
   15.8870    9.9960   18.6650 O   0  0  0  0  0  0  0  0  0  0  0  0
   17.9650   11.9800   20.0570 H   0  0  0  0  0  0  0  0  0  0  0  0
   17.4810   10.1660   21.0140 C   0  0  0  0  0  3  0  0  0  0  0  0
   18.9410    9.7390   21.1690 C   0  0  0  0  0  1  0  0  0  0  0  0
   16.9140   10.7230   22.3310 C   0  0  0  0  0  2  0  0  0  0  0  0
   17.9290   11.4640   23.0230 O   0  0  0  0  0  0  0  0  0  0  0  0
   17.3610   12.3990   23.9310 C   0  0  0  0  0  1  0  0  0  0  0  0
   16.7070   12.0180   17.7720 C   0  0  0  0  0  0  0  0  0  0  0  0
   15.5960   12.8440   17.5680 C   0  0  0  0  0  3  0  0  0  0  0  0
   17.8460   12.1830   16.9740 C   0  0  0  0  0  3  0  0  0  0  0  0
   15.6330   13.8440   16.5930 C   0  0  0  0  0  3  0  0  0  0  0  0
   17.8790   13.1830   15.9960 C   0  0  0  0  0  3  0  0  0  0  0  0
   16.7740   14.0240   15.7980 C   0  0  0  0  0  0  0  0  0  0  0  0
   16.8110   15.1140   14.7450 C   0  0  0  0  0  2  0  0  0  0  0  0
   17.2440   14.6390   13.4210 N   0  0  0  0  0  0  0  0  0  0  0  0
   16.0990   14.4090   12.5260 C   0  0  0  0  0  2  0  0  0  0  0  0
   18.2790   15.5110   12.8380 C   0  0  0  0  0  2  0  0  0  0  0  0
   15.8790   15.5270   11.5080 C   0  0  0  0  0  2  0  0  0  0  0  0
   18.4020   15.3350   11.3260 C   0  0  0  0  0  2  0  0  0  0  0  0
   17.1050   15.7170   10.6160 C   0  0  0  0  0  2  0  0  0  0  0  0
  1  4  1  0
  1  5  1  0
  2  1  1  0
  3  2  2  0
  5  6  1  0
  5  7  1  0
  7  8  1  0
  8  9  1  0
 10  2  1  0
 11 10  1  0
 12 10  2  0
 13 11  2  0
 14 12  1  0
 15 14  2  0
 15 13  1  0
 16 15  1  0
 17 16  1  0
 18 17  1  0
 19 17  1  0
 20 18  1  0
 21 19  1  0
 22 21  1  0
 22 20  1  0
M  RAD  8   5   2   6   2   7   3   9   2  11   2  12   2  13   2  14   2
M  RAD  6  16   3  18   3  19   3  20   3  21   3  22   3
M  END
>  <vina_score>  (1) 
-5.9299999999999997

>  <pose_id>  (1) 
1

$$$$

     RDKit          3D

 22 23  0  0  1  0  0  0  0  0999 V2000
   19.5930   15.5000   11.4790 N   0  0  0  0  0  0  0  0  0  0  0  0
   20.8980   15.5800   11.0490 C   0  0  0  0  0  0  0  0  0  0  0  0
   21.3310   16.5150   10.3840 O   0  0  0  0  0  0  0  0  0  0  0  0
   19.2680   14.7120   12.0250 H   0  0  0  0  0  0  0  0  0  0  0  0
   18.5660   16.4440   11.0500 C   0  0  0  0  0  3  0  0  0  0  0  0
   18.1380   16.1270    9.6170 C   0  0  0  0  0  1  0  0  0  0  0  0
   17.3720   16.3970   12.0180 C   0  0  0  0  0  2  0  0  0  0  0  0
   16.2190   15.8770   11.3440 O   0  0  0  0  0  0  0  0  0  0  0  0
   15.6500   14.7840   12.0540 C   0  0  0  0  0  1  0  0  0  0  0  0
   21.8030   14.4710   11.4600 C   0  0  0  0  0  0  0  0  0  0  0  0
   21.3900   13.6290   12.4980 C   0  0  0  0  0  3  0  0  0  0  0  0
   23.0530   14.2670   10.8620 C   0  0  0  0  0  3  0  0  0  0  0  0
   22.2060   12.5760   12.9170 C   0  0  0  0  0  3  0  0  0  0  0  0
   23.8700   13.2130   11.2850 C   0  0  0  0  0  3  0  0  0  0  0  0
   23.4540   12.3560   12.3140 C   0  0  0  0  0  0  0  0  0  0  0  0
   24.3340   11.2090   12.7690 C   0  0  0  0  0  2  0  0  0  0  0  0
   24.3640   11.0320   14.2300 N   0  0  0  0  0  0  0  0  0  0  0  0
   24.7730    9.6690   14.6040 C   0  0  0  0  0  2  0  0  0  0  0  0
   25.1530   12.0860   14.8930 C   0  0  0  0  0  2  0  0  0  0  0  0
   26.2280    9.5660   15.0560 C   0  0  0  0  0  2  0  0  0  0  0  0
   25.5910   11.6830   16.3000 C   0  0  0  0  0  2  0  0  0  0  0  0
   26.4990   10.4560   16.2680 C   0  0  0  0  0  2  0  0  0  0  0  0
  1  4  1  0
  2 10  1  0
  2  1  1  0
  3  2  2  0
  5  6  1  0
  5  1  1  0
  5  7  1  0
  8  7  1  0
  8  9  1  0
 10 11  1  0
 11 13  2  0
 12 14  1  0
 12 10  2  0
 14 15  2  0
 15 16  1  0
 15 13  1  0
 16 17  1  0
 17 18  1  0
 17 19  1  0
 18 20  1  0
 19 21  1  0
 20 22  1  0
 22 21  1  0
M  RAD  8   5   2   6   2   7   3   9   2  11   2  12   2  13   2  14   2
M  RAD  6  16   3  18   3  19   3  20   3  21   3  22   3
M  END
>  <vina_score>  (2) 
-5.8330000000000002

>  <pose_id>  (2) 
2

$$$$

     RDKit          3D

 22 23  0  0  1  0  0  0  0  0999 V2000
   17.7640   14.6850   12.5630 N   0  0  0  0  0  0  0  0  0  0  0  0
   18.8120   15.0770   11.7630 C   0  0  0  0  0  0  0  0  0  0  0  0
   18.7030   15.9170   10.8760 O   0  0  0  0  0  0  0  0  0  0  0  0
   17.8870   13.9870   13.2860 H   0  0  0  0  0  0  0  0  0  0  0  0
   16.3900   15.1160   12.3250 C   0  0  0  0  0  3  0  0  0  0  0  0
   15.4240   13.9810   12.6680 C   0  0  0  0  0  1  0  0  0  0  0  0
   16.0870   16.3820   13.1440 C   0  0  0  0  0  2  0  0  0  0  0  0
   16.5850   16.2270   14.4800 O   0  0  0  0  0  0  0  0  0  0  0  0
   15.5800   16.5150   15.4450 C   0  0  0  0  0  1  0  0  0  0  0  0
   20.1340   14.4510   12.0440 C   0  0  0  0  0  0  0  0  0  0  0  0
   20.1640   13.2890   12.8220 C   0  0  0  0  0  3  0  0  0  0  0  0
   21.3350   15.0020   11.5790 C   0  0  0  0  0  3  0  0  0  0  0  0
   21.3810   12.6670   13.1110 C   0  0  0  0  0  3  0  0  0  0  0  0
   22.5530   14.3790   11.8710 C   0  0  0  0  0  3  0  0  0  0  0  0
   22.5880   13.2050   12.6380 C   0  0  0  0  0  0  0  0  0  0  0  0
   23.9050   12.5240   12.9500 C   0  0  0  0  0  2  0  0  0  0  0  0
   23.9380   11.8810   14.2740 N   0  0  0  0  0  0  0  0  0  0  0  0
   24.1920   10.4360   14.1700 C   0  0  0  0  0  2  0  0  0  0  0  0
   24.8550   12.5750   15.1950 C   0  0  0  0  0  2  0  0  0  0  0  0
   25.6320   10.0390   14.4880 C   0  0  0  0  0  2  0  0  0  0  0  0
   25.2670   11.6950   16.3750 C   0  0  0  0  0  2  0  0  0  0  0  0
   26.0250   10.4550   15.9040 C   0  0  0  0  0  2  0  0  0  0  0  0
  1  4  1  0
  2 10  1  0
  2  1  1  0
  3  2  2  0
  5  1  1  0
  5  6  1  0
  5  7  1  0
  7  8  1  0
  8  9  1  0
 10 11  1  0
 11 13  2  0
 12 14  1  0
 12 10  2  0
 14 15  2  0
 15 16  1  0
 15 13  1  0
 16 17  1  0
 17 19  1  0
 18 17  1  0
 18 20  1  0
 19 21  1  0
 20 22  1  0
 22 21  1  0
M  RAD  8   5   2   6   2   7   3   9   2  11   2  12   2  13   2  14   2
M  RAD  6  16   3  18   3  19   3  20   3  21   3  22   3
M  END
>  <vina_score>  (3) 
-5.8209999999999997

>  <pose_id>  (3) 
3

$$$$

     RDKit          3D

 22 23  0  0  1  0  0  0  0  0999 V2000
   18.0840   12.0710   17.8440 N   0  0  0  0  0  0  0  0  0  0  0  0
   16.7600   12.0100   17.4760 C   0  0  0  0  0  0  0  0  0  0  0  0
   15.9010   11.4470   18.1460 O   0  0  0  0  0  0  0  0  0  0  0  0
   18.7690   12.5410   17.2660 H   0  0  0  0  0  0  0  0  0  0  0  0
   18.6160   11.3350   18.9870 C   0  0  0  0  0  3  0  0  0  0  0  0
   19.1970   10.0000   18.5190 C   0  0  0  0  0  1  0  0  0  0  0  0
   19.6700   12.1850   19.7140 C   0  0  0  0  0  2  0  0  0  0  0  0
   19.6580   11.8820   21.1160 O   0  0  0  0  0  0  0  0  0  0  0  0
   18.3330   11.8640   21.6320 C   0  0  0  0  0  1  0  0  0  0  0  0
   16.3890   12.7020   16.2100 C   0  0  0  0  0  0  0  0  0  0  0  0
   16.5690   12.0170   15.0040 C   0  0  0  0  0  3  0  0  0  0  0  0
   15.8970   14.0140   16.1930 C   0  0  0  0  0  3  0  0  0  0  0  0
   16.2350   12.6270   13.7920 C   0  0  0  0  0  3  0  0  0  0  0  0
   15.5660   14.6230   14.9780 C   0  0  0  0  0  3  0  0  0  0  0  0
   15.7300   13.9350   13.7670 C   0  0  0  0  0  0  0  0  0  0  0  0
   15.3640   14.5910   12.4500 C   0  0  0  0  0  2  0  0  0  0  0  0
   16.3010   15.6480   12.0370 N   0  0  0  0  0  0  0  0  0  0  0  0
   17.6040   15.5090   12.7060 C   0  0  0  0  0  2  0  0  0  0  0  0
   16.4010   15.7480   10.5700 C   0  0  0  0  0  2  0  0  0  0  0  0
   18.6860   14.8890   11.8240 C   0  0  0  0  0  2  0  0  0  0  0  0
   17.6690   16.4740   10.1240 C   0  0  0  0  0  2  0  0  0  0  0  0
   18.9230   15.7210   10.5640 C   0  0  0  0  0  2  0  0  0  0  0  0
  1  5  1  0
  2  1  1  0
  2  3  2  0
  4  1  1  0
  5  6  1  0
  5  7  1  0
  7  8  1  0
  8  9  1  0
 10  2  1  0
 11 10  1  0
 12 10  2  0
 13 11  2  0
 14 12  1  0
 15 13  1  0
 15 14  2  0
 16 15  1  0
 17 16  1  0
 17 18  1  0
 19 17  1  0
 20 18  1  0
 21 22  1  0
 21 19  1  0
 22 20  1  0
M  RAD  8   5   2   6   2   7   3   9   2  11   2  12   2  13   2  14   2
M  RAD  6  16   3  18   3  19   3  20   3  21   3  22   3
M  END
>  <vina_score>  (4) 
-5.7560000000000002

>  <pose_id>  (4) 
4

$$$$

     RDKit          3D

 22 23  0  0  1  0  0  0  0  0999 V2000
   23.4350   11.4510   15.0750 N   0  0  0  0  0  0  0  0  0  0  0  0
   23.7380   10.8500   16.2740 C   0  0  0  0  0  0  0  0  0  0  0  0
   24.8840   10.5900   16.6260 O   0  0  0  0  0  0  0  0  0  0  0  0
   22.4770   11.6490   14.8140 H   0  0  0  0  0  0  0  0  0  0  0  0
   24.4370   11.6920   14.0420 C   0  0  0  0  0  3  0  0  0  0  0  0
   24.4420   10.5330   13.0440 C   0  0  0  0  0  1  0  0  0  0  0  0
   24.1610   13.0340   13.3450 C   0  0  0  0  0  2  0  0  0  0  0  0
   22.9570   12.9420   12.5700 O   0  0  0  0  0  0  0  0  0  0  0  0
   22.9170   13.9350   11.5530 C   0  0  0  0  0  1  0  0  0  0  0  0
   22.5910   10.5440   17.1750 C   0  0  0  0  0  0  0  0  0  0  0  0
   22.8530   10.3430   18.5340 C   0  0  0  0  0  3  0  0  0  0  0  0
   21.2790   10.4260   16.6990 C   0  0  0  0  0  3  0  0  0  0  0  0
   21.8080   10.0540   19.4160 C   0  0  0  0  0  3  0  0  0  0  0  0
   20.2350   10.1340   17.5830 C   0  0  0  0  0  3  0  0  0  0  0  0
   20.4890    9.9470   18.9500 C   0  0  0  0  0  0  0  0  0  0  0  0
   19.3590    9.6390   19.9110 C   0  0  0  0  0  2  0  0  0  0  0  0
   18.8730   10.8170   20.6470 N   0  0  0  0  0  0  0  0  0  0  0  0
   17.4290   11.0220   20.4530 C   0  0  0  0  0  2  0  0  0  0  0  0
   19.2770   10.7820   22.0640 C   0  0  0  0  0  2  0  0  0  0  0  0
   16.5770   10.5490   21.6290 C   0  0  0  0  0  2  0  0  0  0  0  0
   18.4220   11.7030   22.9330 C   0  0  0  0  0  2  0  0  0  0  0  0
   16.9560   11.2750   22.9190 C   0  0  0  0  0  2  0  0  0  0  0  0
  1  2  1  0
  2  3  2  0
  2 10  1  0
  4  1  1  0
  5  6  1  0
  5  1  1  0
  7  5  1  0
  8  7  1  0
  9  8  1  0
 10 11  1  0
 11 13  2  0
 12 10  2  0
 12 14  1  0
 14 15  2  0
 15 13  1  0
 15 16  1  0
 16 17  1  0
 17 19  1  0
 18 17  1  0
 18 20  1  0
 19 21  1  0
 20 22  1  0
 22 21  1  0
M  RAD  8   5   2   6   2   7   3   9   2  11   2  12   2  13   2  14   2
M  RAD  6  16   3  18   3  19   3  20   3  21   3  22   3
M  END
>  <vina_score>  (5) 
-5.7050000000000001

>  <pose_id>  (5) 
5

$$$$
