
     RDKit          3D

 32 36  0  0  0  0  0  0  0  0999 V2000
   19.4110   11.1010   14.4000 S   0  0  0  0  0  0  0  0  0  0  0  0
   19.9010   12.7670   14.9410 C   0  0  0  0  0  2  0  0  0  0  0  0
   18.7350   13.7120   14.7170 C   0  0  0  0  0  0  0  0  0  0  0  0
   18.6320   14.7860   15.3070 O   0  0  0  0  0  0  0  0  0  0  0  0
   17.8150   13.2660   13.7840 N   0  0  0  0  0  0  0  0  0  0  0  0
   18.1000   12.5090   13.1710 H   0  0  0  0  0  0  0  0  0  0  0  0
   16.7230   14.1100   13.3530 C   0  0  0  0  0  3  0  0  0  0  0  0
   17.0880   14.9830   12.1510 C   0  0  0  0  0  2  0  0  0  0  0  0
   15.5240   13.3110   12.8480 C   0  0  0  0  0  2  0  0  0  0  0  0
   15.7620   15.2720   11.4440 C   0  0  0  0  0  2  0  0  0  0  0  0
   14.7220   14.3510   12.0800 C   0  0  0  0  0  2  0  0  0  0  0  0
   18.6320   10.5340   15.8360 C   0  0  0  0  0  0  0  0  0  0  0  0
   17.3710   10.7310   16.1330 N   0  0  0  0  0  0  0  0  0  0  0  0
   19.2450    9.8020   16.8300 N   0  0  0  0  0  0  0  0  0  0  0  0
   17.1240   10.1140   17.3260 N   0  0  0  0  0  0  0  0  0  0  0  0
   18.2360    9.5250   17.7370 C   0  0  0  0  0  0  0  0  0  0  0  0
   20.6660    9.4740   16.9130 C   0  0  0  0  0  3  0  0  0  0  0  0
   20.9470    7.9710   17.0960 C   0  0  0  0  0  2  0  0  0  0  0  0
   21.4270   10.3630   17.9100 C   0  0  0  0  0  2  0  0  0  0  0  0
   22.2130    7.6930   17.9080 C   0  0  0  0  0  2  0  0  0  0  0  0
   22.9390   10.1260   17.8420 C   0  0  0  0  0  2  0  0  0  0  0  0
   23.3260    8.6720   17.5540 C   0  0  0  0  0  2  0  0  0  0  0  0
   18.3390    8.7340   19.0050 C   0  0  0  0  0  2  0  0  0  0  0  0
   18.4060    9.5710   20.2680 C   0  0  0  0  0  0  0  0  0  0  0  0
   19.6620   10.0070   20.7580 C   0  0  0  0  0  3  0  0  0  0  0  0
   17.2340    9.9780   20.9320 C   0  0  0  0  0  3  0  0  0  0  0  0
   19.7550   10.8050   21.9030 C   0  0  0  0  0  3  0  0  0  0  0  0
   17.3580   10.7700   22.0560 C   0  0  0  0  0  0  0  0  0  0  0  0
   18.5830   11.1690   22.5300 C   0  0  0  0  0  0  0  0  0  0  0  0
   16.3300   11.2520   22.8070 O   0  0  0  0  0  0  0  0  0  0  0  0
   18.4820   11.9450   23.6440 O   0  0  0  0  0  0  0  0  0  0  0  0
   17.0500   11.9960   23.8100 C   0  0  0  0  0  2  0  0  0  0  0  0
  1  2  1  0
  1 12  1  0
  3  2  1  0
  3  4  2  0
  5  3  1  0
  6  5  1  0
  7  5  1  0
  8  7  1  0
  9  7  1  0
 10 11  1  0
 10  8  1  0
 11  9  1  0
 12 13  2  0
 12 14  1  0
 13 15  1  0
 14 17  1  0
 14 16  1  0
 15 16  2  0
 16 23  1  0
 17 18  1  0
 17 19  1  0
 18 20  1  0
 21 19  1  0
 22 21  1  0
 22 20  1  0
 23 24  1  0
 24 25  1  0
 24 26  2  0
 25 27  2  0
 26 28  1  0
 27 29  1  0
 28 29  2  0
 28 30  1  0
 29 31  1  0
 30 32  1  0
 31 32  1  0
M  RAD  8   2   3   7   2   8   3   9   3  10   3  11   3  17   2  18   3
M  RAD  8  19   3  20   3  21   3  22   3  23   3  25   2  26   2  27   2
M  RAD  1  32   3
M  END
>  <vina_score>  (1) 
-7.782

>  <pose_id>  (1) 
1

$$$$

     RDKit          3D

 32 36  0  0  0  0  0  0  0  0999 V2000
   19.6740   14.1530   13.0770 S   0  0  0  0  0  0  0  0  0  0  0  0
   21.3450   14.4990   13.7050 C   0  0  0  0  0  2  0  0  0  0  0  0
   22.1460   13.2100   13.6870 C   0  0  0  0  0  0  0  0  0  0  0  0
   22.2880   12.5340   12.6700 O   0  0  0  0  0  0  0  0  0  0  0  0
   22.7100   12.8760   14.9060 N   0  0  0  0  0  0  0  0  0  0  0  0
   22.7580   13.6030   15.6140 H   0  0  0  0  0  0  0  0  0  0  0  0
   23.6180   11.7570   15.0250 C   0  0  0  0  0  3  0  0  0  0  0  0
   25.0870   12.1830   15.0390 C   0  0  0  0  0  2  0  0  0  0  0  0
   23.4630   11.0110   16.3480 C   0  0  0  0  0  2  0  0  0  0  0  0
   25.8220   11.0770   15.7980 C   0  0  0  0  0  2  0  0  0  0  0  0
   24.7460   10.1970   16.4310 C   0  0  0  0  0  2  0  0  0  0  0  0
   18.8730   13.7490   14.5570 C   0  0  0  0  0  0  0  0  0  0  0  0
   18.4090   14.6190   15.4200 N   0  0  0  0  0  0  0  0  0  0  0  0
   18.6240   12.4660   14.9940 N   0  0  0  0  0  0  0  0  0  0  0  0
   17.8260   13.9220   16.4390 N   0  0  0  0  0  0  0  0  0  0  0  0
   17.9210   12.6280   16.1770 C   0  0  0  0  0  0  0  0  0  0  0  0
   19.0820   11.2310   14.3640 C   0  0  0  0  0  3  0  0  0  0  0  0
   17.9530   10.4120   13.7110 C   0  0  0  0  0  2  0  0  0  0  0  0
   19.9940   10.3960   15.2770 C   0  0  0  0  0  2  0  0  0  0  0  0
   18.2110    8.9040   13.7460 C   0  0  0  0  0  2  0  0  0  0  0  0
   20.6070    9.2060   14.5320 C   0  0  0  0  0  2  0  0  0  0  0  0
   19.6780    8.5850   13.4840 C   0  0  0  0  0  2  0  0  0  0  0  0
   17.3740   11.5560   17.0680 C   0  0  0  0  0  2  0  0  0  0  0  0
   17.9480   11.5490   18.4730 C   0  0  0  0  0  0  0  0  0  0  0  0
   19.3180   11.8490   18.6750 C   0  0  0  0  0  3  0  0  0  0  0  0
   17.1280   11.3100   19.5900 C   0  0  0  0  0  3  0  0  0  0  0  0
   19.8710   11.8810   19.9600 C   0  0  0  0  0  3  0  0  0  0  0  0
   17.7010   11.3530   20.8460 C   0  0  0  0  0  0  0  0  0  0  0  0
   19.0350   11.6270   21.0250 C   0  0  0  0  0  0  0  0  0  0  0  0
   17.0510   11.1510   22.0250 O   0  0  0  0  0  0  0  0  0  0  0  0
   19.3940   11.6240   22.3380 O   0  0  0  0  0  0  0  0  0  0  0  0
   18.1300   11.3250   22.9650 C   0  0  0  0  0  2  0  0  0  0  0  0
  1  2  1  0
  1 12  1  0
  3  2  1  0
  3  5  1  0
  4  3  2  0
  5  7  1  0
  5  6  1  0
  7  8  1  0
  7  9  1  0
  8 10  1  0
  9 11  1  0
 10 11  1  0
 12 14  1  0
 12 13  2  0
 13 15  1  0
 14 16  1  0
 16 15  2  0
 16 23  1  0
 17 14  1  0
 17 19  1  0
 18 20  1  0
 18 17  1  0
 21 19  1  0
 22 20  1  0
 22 21  1  0
 23 24  1  0
 24 25  1  0
 24 26  2  0
 25 27  2  0
 26 28  1  0
 27 29  1  0
 28 29  2  0
 28 30  1  0
 29 31  1  0
 30 32  1  0
 31 32  1  0
M  RAD  8   2   3   7   2   8   3   9   3  10   3  11   3  17   2  18   3
M  RAD  8  19   3  20   3  21   3  22   3  23   3  25   2  26   2  27   2
M  RAD  1  32   3
M  END
>  <vina_score>  (2) 
-7.6289999999999996

>  <pose_id>  (2) 
2

$$$$

     RDKit          3D

 32 36  0  0  0  0  0  0  0  0999 V2000
   20.1460    9.4450   19.3660 S   0  0  0  0  0  0  0  0  0  0  0  0
   21.6230   10.5000   19.4820 C   0  0  0  0  0  2  0  0  0  0  0  0
   22.6110   10.0700   18.4140 C   0  0  0  0  0  0  0  0  0  0  0  0
   23.3350    9.0840   18.5400 O   0  0  0  0  0  0  0  0  0  0  0  0
   22.6110   10.8730   17.2860 N   0  0  0  0  0  0  0  0  0  0  0  0
   21.8220   11.4980   17.1570 H   0  0  0  0  0  0  0  0  0  0  0  0
   23.3910   10.5200   16.1200 C   0  0  0  0  0  3  0  0  0  0  0  0
   22.5220   10.1340   14.9210 C   0  0  0  0  0  2  0  0  0  0  0  0
   24.2160   11.6870   15.5880 C   0  0  0  0  0  2  0  0  0  0  0  0
   23.3780   10.4360   13.6900 C   0  0  0  0  0  2  0  0  0  0  0  0
   24.5850   11.2290   14.1840 C   0  0  0  0  0  2  0  0  0  0  0  0
   19.1700   10.4080   18.3120 C   0  0  0  0  0  0  0  0  0  0  0  0
   19.3890   10.5750   17.0310 N   0  0  0  0  0  0  0  0  0  0  0  0
   18.0440   11.1050   18.6960 N   0  0  0  0  0  0  0  0  0  0  0  0
   18.3950   11.3740   16.5400 N   0  0  0  0  0  0  0  0  0  0  0  0
   17.5650   11.6710   17.5270 C   0  0  0  0  0  0  0  0  0  0  0  0
   17.5410   11.2550   20.0590 C   0  0  0  0  0  3  0  0  0  0  0  0
   18.5520   11.8950   21.0280 C   0  0  0  0  0  2  0  0  0  0  0  0
   16.9010    9.9680   20.6050 C   0  0  0  0  0  2  0  0  0  0  0  0
   18.4030   11.3920   22.4650 C   0  0  0  0  0  2  0  0  0  0  0  0
   16.2180   10.2030   21.9550 C   0  0  0  0  0  2  0  0  0  0  0  0
   16.9380   11.2210   22.8450 C   0  0  0  0  0  2  0  0  0  0  0  0
   16.3420   12.5190   17.3570 C   0  0  0  0  0  2  0  0  0  0  0  0
   16.2340   13.2110   16.0110 C   0  0  0  0  0  0  0  0  0  0  0  0
   15.5290   12.5870   14.9530 C   0  0  0  0  0  3  0  0  0  0  0  0
   16.7720   14.4950   15.8110 C   0  0  0  0  0  3  0  0  0  0  0  0
   15.3860   13.2120   13.7090 C   0  0  0  0  0  3  0  0  0  0  0  0
   16.6110   15.0890   14.5750 C   0  0  0  0  0  0  0  0  0  0  0  0
   15.9400   14.4640   13.5530 C   0  0  0  0  0  0  0  0  0  0  0  0
   17.0620   16.3230   14.2200 O   0  0  0  0  0  0  0  0  0  0  0  0
   15.8920   15.2210   12.4220 O   0  0  0  0  0  0  0  0  0  0  0  0
   16.6020   16.4000   12.8550 C   0  0  0  0  0  2  0  0  0  0  0  0
  1  2  1  0
  3  4  2  0
  3  2  1  0
  5  3  1  0
  6  5  1  0
  7  5  1  0
  8  7  1  0
  9  7  1  0
 10 11  1  0
 10  8  1  0
 11  9  1  0
 12 14  1  0
 12  1  1  0
 13 12  2  0
 14 17  1  0
 15 13  1  0
 15 16  2  0
 16 14  1  0
 17 19  1  0
 17 18  1  0
 18 20  1  0
 19 21  1  0
 20 22  1  0
 21 22  1  0
 23 16  1  0
 24 23  1  0
 25 24  1  0
 26 24  2  0
 27 25  2  0
 28 26  1  0
 29 27  1  0
 29 28  2  0
 30 28  1  0
 31 32  1  0
 31 29  1  0
 32 30  1  0
M  RAD  8   2   3   7   2   8   3   9   3  10   3  11   3  17   2  18   3
M  RAD  8  19   3  20   3  21   3  22   3  23   3  25   2  26   2  27   2
M  RAD  1  32   3
M  END
>  <vina_score>  (3) 
-7.6159999999999997

>  <pose_id>  (3) 
3

$$$$

     RDKit          3D

 32 36  0  0  0  0  0  0  0  0999 V2000
   19.9380    8.4240   18.3600 S   0  0  0  0  0  0  0  0  0  0  0  0
   18.8510    9.7430   17.7370 C   0  0  0  0  0  2  0  0  0  0  0  0
   18.6970   10.7960   18.8180 C   0  0  0  0  0  0  0  0  0  0  0  0
   18.9630   11.9810   18.6290 O   0  0  0  0  0  0  0  0  0  0  0  0
   18.2180   10.3070   20.0220 N   0  0  0  0  0  0  0  0  0  0  0  0
   17.7900    9.3870   20.0150 H   0  0  0  0  0  0  0  0  0  0  0  0
   17.8810   11.2010   21.1070 C   0  0  0  0  0  3  0  0  0  0  0  0
   16.6640   10.7310   21.9070 C   0  0  0  0  0  2  0  0  0  0  0  0
   18.9790   11.2820   22.1650 C   0  0  0  0  0  2  0  0  0  0  0  0
   16.8390   11.3360   23.3010 C   0  0  0  0  0  2  0  0  0  0  0  0
   18.2580   11.8990   23.3550 C   0  0  0  0  0  2  0  0  0  0  0  0
   21.4840    9.1290   18.0350 C   0  0  0  0  0  0  0  0  0  0  0  0
   22.1410    9.9090   18.8570 N   0  0  0  0  0  0  0  0  0  0  0  0
   22.2070    8.9450   16.8760 N   0  0  0  0  0  0  0  0  0  0  0  0
   23.3240   10.2400   18.2600 N   0  0  0  0  0  0  0  0  0  0  0  0
   23.3870    9.6400   17.0820 C   0  0  0  0  0  0  0  0  0  0  0  0
   21.7620    8.2310   15.6810 C   0  0  0  0  0  3  0  0  0  0  0  0
   22.8170    7.2690   15.1040 C   0  0  0  0  0  2  0  0  0  0  0  0
   21.1390    9.1590   14.6260 C   0  0  0  0  0  2  0  0  0  0  0  0
   22.7280    7.1250   13.5830 C   0  0  0  0  0  2  0  0  0  0  0  0
   20.5160    8.3700   13.4720 C   0  0  0  0  0  2  0  0  0  0  0  0
   21.2790    7.0900   13.1140 C   0  0  0  0  0  2  0  0  0  0  0  0
   24.5520    9.7580   16.1490 C   0  0  0  0  0  2  0  0  0  0  0  0
   24.3570   10.7500   15.0180 C   0  0  0  0  0  0  0  0  0  0  0  0
   23.8800   12.0540   15.3000 C   0  0  0  0  0  3  0  0  0  0  0  0
   24.7000   10.4190   13.6950 C   0  0  0  0  0  3  0  0  0  0  0  0
   23.7180   13.0020   14.2830 C   0  0  0  0  0  3  0  0  0  0  0  0
   24.5340   11.3760   12.7140 C   0  0  0  0  0  0  0  0  0  0  0  0
   24.0530   12.6300   12.9990 C   0  0  0  0  0  0  0  0  0  0  0  0
   24.8220   11.2200   11.3930 O   0  0  0  0  0  0  0  0  0  0  0  0
   23.9700   13.4190   11.8930 O   0  0  0  0  0  0  0  0  0  0  0  0
   24.4630   12.5190   10.8790 C   0  0  0  0  0  2  0  0  0  0  0  0
  2  1  1  0
  2  3  1  0
  3  5  1  0
  4  3  2  0
  5  7  1  0
  6  5  1  0
  7  8  1  0
  7  9  1  0
  8 10  1  0
  9 11  1  0
 10 11  1  0
 12  1  1  0
 12 13  2  0
 14 16  1  0
 14 12  1  0
 15 13  1  0
 16 15  2  0
 17 14  1  0
 18 17  1  0
 19 17  1  0
 20 18  1  0
 21 19  1  0
 22 21  1  0
 22 20  1  0
 23 16  1  0
 24 25  1  0
 24 23  1  0
 26 24  2  0
 27 25  2  0
 28 29  2  0
 28 26  1  0
 29 27  1  0
 30 28  1  0
 31 29  1  0
 32 30  1  0
 32 31  1  0
M  RAD  8   2   3   7   2   8   3   9   3  10   3  11   3  17   2  18   3
M  RAD  8  19   3  20   3  21   3  22   3  23   3  25   2  26   2  27   2
M  RAD  1  32   3
M  END
>  <vina_score>  (4) 
-7.5309999999999997

>  <pose_id>  (4) 
4

$$$$

     RDKit          3D

 32 36  0  0  0  0  0  0  0  0999 V2000
   22.4110    9.0540   17.9170 S   0  0  0  0  0  0  0  0  0  0  0  0
   21.6040   10.4670   18.7300 C   0  0  0  0  0  2  0  0  0  0  0  0
   20.3930    9.9600   19.4920 C   0  0  0  0  0  0  0  0  0  0  0  0
   19.9600    8.8170   19.3610 O   0  0  0  0  0  0  0  0  0  0  0  0
   19.8350   10.8900   20.3520 N   0  0  0  0  0  0  0  0  0  0  0  0
   20.3940   11.7040   20.5870 H   0  0  0  0  0  0  0  0  0  0  0  0
   18.7660   10.5220   21.2540 C   0  0  0  0  0  3  0  0  0  0  0  0
   18.8090   11.2980   22.5720 C   0  0  0  0  0  2  0  0  0  0  0  0
   17.3850   10.8610   20.6990 C   0  0  0  0  0  2  0  0  0  0  0  0
   17.3660   11.3110   23.0790 C   0  0  0  0  0  2  0  0  0  0  0  0
   16.4980   10.7960   21.9330 C   0  0  0  0  0  2  0  0  0  0  0  0
   23.2760    9.8790   16.6670 C   0  0  0  0  0  0  0  0  0  0  0  0
   24.0760   10.9000   16.8560 N   0  0  0  0  0  0  0  0  0  0  0  0
   23.2320    9.5530   15.3290 N   0  0  0  0  0  0  0  0  0  0  0  0
   24.5900   11.2560   15.6420 N   0  0  0  0  0  0  0  0  0  0  0  0
   24.1140   10.4320   14.7220 C   0  0  0  0  0  0  0  0  0  0  0  0
   22.3740    8.5460   14.7100 C   0  0  0  0  0  3  0  0  0  0  0  0
   23.1460    7.4640   13.9330 C   0  0  0  0  0  2  0  0  0  0  0  0
   21.2110    9.1580   13.9130 C   0  0  0  0  0  2  0  0  0  0  0  0
   22.3680    6.9190   12.7330 C   0  0  0  0  0  2  0  0  0  0  0  0
   20.2250    8.0890   13.4340 C   0  0  0  0  0  2  0  0  0  0  0  0
   20.8880    6.7600   13.0580 C   0  0  0  0  0  2  0  0  0  0  0  0
   24.4740   10.5080   13.2700 C   0  0  0  0  0  2  0  0  0  0  0  0
   23.8790   11.6940   12.5330 C   0  0  0  0  0  0  0  0  0  0  0  0
   22.7970   12.4070   13.1050 C   0  0  0  0  0  3  0  0  0  0  0  0
   24.4250   12.1390   11.3160 C   0  0  0  0  0  3  0  0  0  0  0  0
   22.2460   13.5230   12.4660 C   0  0  0  0  0  3  0  0  0  0  0  0
   23.8640   13.2460   10.7110 C   0  0  0  0  0  0  0  0  0  0  0  0
   22.8030   13.9170   11.2680 C   0  0  0  0  0  0  0  0  0  0  0  0
   24.2740   13.8070    9.5410 O   0  0  0  0  0  0  0  0  0  0  0  0
   22.4050   14.9780   10.5150 O   0  0  0  0  0  0  0  0  0  0  0  0
   23.3450   14.9040    9.4230 C   0  0  0  0  0  2  0  0  0  0  0  0
  1  2  1  0
  2  3  1  0
  3  5  1  0
  4  3  2  0
  5  6  1  0
  5  7  1  0
  7  8  1  0
  8 10  1  0
  9  7  1  0
  9 11  1  0
 11 10  1  0
 12 13  2  0
 12  1  1  0
 14 12  1  0
 15 13  1  0
 16 14  1  0
 16 15  2  0
 17 14  1  0
 18 17  1  0
 19 17  1  0
 20 22  1  0
 20 18  1  0
 21 19  1  0
 22 21  1  0
 23 16  1  0
 24 25  1  0
 24 23  1  0
 26 24  2  0
 27 25  2  0
 28 29  2  0
 28 26  1  0
 29 27  1  0
 30 28  1  0
 31 29  1  0
 32 30  1  0
 32 31  1  0
M  RAD  8   2   3   7   2   8   3   9   3  10   3  11   3  17   2  18   3
M  RAD  8  19   3  20   3  21   3  22   3  23   3  25   2  26   2  27   2
M  RAD  1  32   3
M  END
>  <vina_score>  (5) 
-7.4539999999999997

>  <pose_id>  (5) 
5

$$$$
