
     RDKit          3D

 22 23  0  0  1  0  0  0  0  0999 V2000
   20.5170   15.0020   12.8820 N   0  0  0  0  0  0  0  0  0  0  0  0
   19.3100   14.3140   12.8760 C   0  0  0  0  0  0  0  0  0  0  0  0
   19.1170   13.2050   12.3950 O   0  0  0  0  0  0  0  0  0  0  0  0
   18.3410   15.0700   13.5470 N   0  0  0  0  0  0  0  0  0  0  0  0
   20.6670   15.4580   13.7680 H   0  0  0  0  0  0  0  0  0  0  0  0
   18.4810   16.0730   13.5040 H   0  0  0  0  0  0  0  0  0  0  0  0
   21.6810   14.5940   12.1850 C   0  0  0  0  0  0  0  0  0  0  0  0
   21.8330   15.0180   10.8410 C   0  0  0  0  0  0  0  0  0  0  0  0
   22.9760   14.6380   10.1190 C   0  0  0  0  0  3  0  0  0  0  0  0
   23.9550   13.8440   10.7030 C   0  0  0  0  0  3  0  0  0  0  0  0
   22.6450   13.7330   12.7540 C   0  0  0  0  0  0  0  0  0  0  0  0
   23.7890   13.3950   12.0080 C   0  0  0  0  0  3  0  0  0  0  0  0
   20.8250   15.9010   10.1530 C   0  0  0  0  0  1  0  0  0  0  0  0
   22.5230   13.1140   14.1230 C   0  0  0  0  0  1  0  0  0  0  0  0
   17.0090   14.5870   13.5950 N   0  0  0  0  0  0  0  0  0  0  0  0
   15.9870   15.6470   13.4570 C   0  0  0  0  0  3  0  0  0  0  0  0
   16.8120   13.7320   14.7820 C   0  0  0  0  0  3  0  0  0  0  0  0
   15.8620   16.5140   14.7190 C   0  0  0  0  0  2  0  0  0  0  0  0
   16.6650   14.5540   16.0750 C   0  0  0  0  0  2  0  0  0  0  0  0
   15.6190   15.6590   15.9590 C   0  0  0  0  0  2  0  0  0  0  0  0
   16.2110   16.5150   12.2130 C   0  0  0  0  0  1  0  0  0  0  0  0
   15.6320   12.7730   14.5770 C   0  0  0  0  0  1  0  0  0  0  0  0
  1  5  1  0
  2  1  1  0
  2  4  1  0
  3  2  2  0
  4 15  1  0
  6  4  1  0
  7 11  1  0
  7  1  1  0
  8  7  2  0
  9 10  2  0
  9  8  1  0
 10 12  1  0
 11 14  1  0
 12 11  2  0
 13  8  1  0
 15 17  1  0
 16 21  1  0
 16 15  1  0
 16 18  1  0
 17 22  1  0
 17 19  1  0
 18 20  1  0
 20 19  1  0
M  RAD  8   9   2  10   2  12   2  13   2  14   2  16   2  17   2  18   3
M  RAD  4  19   3  20   3  21   2  22   2
M  END
>  <vina_score>  (1) 
-6.915

>  <pose_id>  (1) 
1

$$$$

     RDKit          3D

 22 23  0  0  1  0  0  0  0  0999 V2000
   20.8640   14.3790   13.0660 N   0  0  0  0  0  0  0  0  0  0  0  0
   19.6670   13.6720   13.0460 C   0  0  0  0  0  0  0  0  0  0  0  0
   19.5130   12.5330   12.6270 O   0  0  0  0  0  0  0  0  0  0  0  0
   18.6580   14.4530   13.6220 N   0  0  0  0  0  0  0  0  0  0  0  0
   20.9650   14.8910   13.9290 H   0  0  0  0  0  0  0  0  0  0  0  0
   18.7870   15.4540   13.5230 H   0  0  0  0  0  0  0  0  0  0  0  0
   22.0660   13.9470   12.4520 C   0  0  0  0  0  0  0  0  0  0  0  0
   22.9020   13.0640   13.1790 C   0  0  0  0  0  0  0  0  0  0  0  0
   24.1000   12.6100   12.6010 C   0  0  0  0  0  3  0  0  0  0  0  0
   24.4780   13.0240   11.3300 C   0  0  0  0  0  3  0  0  0  0  0  0
   22.4850   14.4180   11.1880 C   0  0  0  0  0  0  0  0  0  0  0  0
   23.6770   13.9210   10.6320 C   0  0  0  0  0  3  0  0  0  0  0  0
   22.5430   12.5540   14.5500 C   0  0  0  0  0  1  0  0  0  0  0  0
   21.7450   15.4560   10.3840 C   0  0  0  0  0  1  0  0  0  0  0  0
   17.3310   13.9530   13.6370 N   0  0  0  0  0  0  0  0  0  0  0  0
   16.3340   14.8950   13.0840 C   0  0  0  0  0  3  0  0  0  0  0  0
   16.9830   13.4510   14.9810 C   0  0  0  0  0  3  0  0  0  0  0  0
   16.0470   16.0710   14.0300 C   0  0  0  0  0  2  0  0  0  0  0  0
   16.6700   14.5920   15.9660 C   0  0  0  0  0  2  0  0  0  0  0  0
   15.6460   15.5820   15.4190 C   0  0  0  0  0  2  0  0  0  0  0  0
   16.7160   15.3950   11.6860 C   0  0  0  0  0  1  0  0  0  0  0  0
   15.8410   12.4300   14.9050 C   0  0  0  0  0  1  0  0  0  0  0  0
  1  5  1  0
  2  1  1  0
  2  4  1  0
  3  2  2  0
  4 15  1  0
  6  4  1  0
  7  1  1  0
  7  8  2  0
  8 13  1  0
  9  8  1  0
 10  9  2  0
 11  7  1  0
 12 11  2  0
 12 10  1  0
 14 11  1  0
 15 17  1  0
 16 21  1  0
 16 15  1  0
 16 18  1  0
 17 22  1  0
 17 19  1  0
 18 20  1  0
 20 19  1  0
M  RAD  8   9   2  10   2  12   2  13   2  14   2  16   2  17   2  18   3
M  RAD  4  19   3  20   3  21   2  22   2
M  END
>  <vina_score>  (2) 
-6.7530000000000001

>  <pose_id>  (2) 
2

$$$$

     RDKit          3D

 22 23  0  0  1  0  0  0  0  0999 V2000
   19.5490   14.7210   12.9330 N   0  0  0  0  0  0  0  0  0  0  0  0
   19.1610   13.4160   13.2130 C   0  0  0  0  0  0  0  0  0  0  0  0
   19.4880   12.4180   12.5840 O   0  0  0  0  0  0  0  0  0  0  0  0
   18.3620   13.4070   14.3630 N   0  0  0  0  0  0  0  0  0  0  0  0
   19.7690   15.2210   13.7800 H   0  0  0  0  0  0  0  0  0  0  0  0
   17.8310   14.2560   14.5180 H   0  0  0  0  0  0  0  0  0  0  0  0
   20.2570   15.1200   11.7720 C   0  0  0  0  0  0  0  0  0  0  0  0
   19.5040   15.5500   10.6510 C   0  0  0  0  0  0  0  0  0  0  0  0
   20.1690   15.9590    9.4830 C   0  0  0  0  0  3  0  0  0  0  0  0
   21.5570   15.9350    9.4100 C   0  0  0  0  0  3  0  0  0  0  0  0
   21.6630   15.0340   11.6720 C   0  0  0  0  0  0  0  0  0  0  0  0
   22.2950   15.4750   10.4950 C   0  0  0  0  0  3  0  0  0  0  0  0
   18.0000   15.6260   10.6680 C   0  0  0  0  0  1  0  0  0  0  0  0
   22.5540   14.4680   12.7470 C   0  0  0  0  0  1  0  0  0  0  0  0
   17.7910   12.1810   14.7890 N   0  0  0  0  0  0  0  0  0  0  0  0
   16.3360   12.2580   15.0410 C   0  0  0  0  0  3  0  0  0  0  0  0
   18.5540   11.6220   15.9230 C   0  0  0  0  0  3  0  0  0  0  0  0
   16.0000   13.0200   16.3320 C   0  0  0  0  0  2  0  0  0  0  0  0
   18.2420   12.3420   17.2470 C   0  0  0  0  0  2  0  0  0  0  0  0
   16.7460   12.4390   17.5300 C   0  0  0  0  0  2  0  0  0  0  0  0
   15.5680   12.8350   13.8460 C   0  0  0  0  0  1  0  0  0  0  0  0
   18.3430   10.1070   16.0310 C   0  0  0  0  0  1  0  0  0  0  0  0
  1  2  1  0
  1  5  1  0
  2  4  1  0
  3  2  2  0
  4  6  1  0
  4 15  1  0
  7  1  1  0
  8 13  1  0
  8  7  2  0
  9  8  1  0
 10  9  2  0
 10 12  1  0
 11  7  1  0
 11 14  1  0
 12 11  2  0
 15 16  1  0
 15 17  1  0
 16 21  1  0
 16 18  1  0
 17 22  1  0
 17 19  1  0
 18 20  1  0
 19 20  1  0
M  RAD  8   9   2  10   2  12   2  13   2  14   2  16   2  17   2  18   3
M  RAD  4  19   3  20   3  21   2  22   2
M  END
>  <vina_score>  (3) 
-6.6929999999999996

>  <pose_id>  (3) 
3

$$$$

     RDKit          3D

 22 23  0  0  1  0  0  0  0  0999 V2000
   19.6500   13.7610   12.5520 N   0  0  0  0  0  0  0  0  0  0  0  0
   20.9370   14.0270   13.0040 C   0  0  0  0  0  0  0  0  0  0  0  0
   21.2890   15.0200   13.6270 O   0  0  0  0  0  0  0  0  0  0  0  0
   21.7760   12.9570   12.6690 N   0  0  0  0  0  0  0  0  0  0  0  0
   19.4130   12.7910   12.6900 H   0  0  0  0  0  0  0  0  0  0  0  0
   21.5060   12.4510   11.8340 H   0  0  0  0  0  0  0  0  0  0  0  0
   18.5710   14.6790   12.6040 C   0  0  0  0  0  0  0  0  0  0  0  0
   17.6910   14.6070   13.7110 C   0  0  0  0  0  0  0  0  0  0  0  0
   16.6130   15.5040   13.8000 C   0  0  0  0  0  3  0  0  0  0  0  0
   16.3950   16.4540   12.8100 C   0  0  0  0  0  3  0  0  0  0  0  0
   18.3090   15.6010   11.5660 C   0  0  0  0  0  0  0  0  0  0  0  0
   17.2350   16.4990   11.7020 C   0  0  0  0  0  3  0  0  0  0  0  0
   17.8820   13.6220   14.8340 C   0  0  0  0  0  1  0  0  0  0  0  0
   19.0950   15.6770   10.2830 C   0  0  0  0  0  1  0  0  0  0  0  0
   23.1580   13.0520   12.9700 N   0  0  0  0  0  0  0  0  0  0  0  0
   24.0370   12.8310   11.8020 C   0  0  0  0  0  3  0  0  0  0  0  0
   23.4950   12.2010   14.1290 C   0  0  0  0  0  3  0  0  0  0  0  0
   24.0930   11.3560   11.3760 C   0  0  0  0  0  2  0  0  0  0  0  0
   23.5780   10.7110   13.7520 C   0  0  0  0  0  2  0  0  0  0  0  0
   24.4770   10.4540   12.5460 C   0  0  0  0  0  2  0  0  0  0  0  0
   23.6710   13.7320   10.6170 C   0  0  0  0  0  1  0  0  0  0  0  0
   24.7760   12.6910   14.8140 C   0  0  0  0  0  1  0  0  0  0  0  0
  1  7  1  0
  1  5  1  0
  1  2  1  0
  2  3  2  0
  4 15  1  0
  4  2  1  0
  6  4  1  0
  7  8  2  0
  8  9  1  0
  8 13  1  0
 10  9  2  0
 11 12  2  0
 11  7  1  0
 12 10  1  0
 14 11  1  0
 15 17  1  0
 16 21  1  0
 16 15  1  0
 17 22  1  0
 18 16  1  0
 18 20  1  0
 19 17  1  0
 20 19  1  0
M  RAD  8   9   2  10   2  12   2  13   2  14   2  16   2  17   2  18   3
M  RAD  4  19   3  20   3  21   2  22   2
M  END
>  <vina_score>  (4) 
-6.5060000000000002

>  <pose_id>  (4) 
4

$$$$

     RDKit          3D

 22 23  0  0  1  0  0  0  0  0999 V2000
   21.1380   13.2620   13.9790 N   0  0  0  0  0  0  0  0  0  0  0  0
   19.9620   12.9790   13.2950 C   0  0  0  0  0  0  0  0  0  0  0  0
   19.7260   11.9570   12.6650 O   0  0  0  0  0  0  0  0  0  0  0  0
   19.0590   14.0340   13.4700 N   0  0  0  0  0  0  0  0  0  0  0  0
   20.9430   13.7010   14.8650 H   0  0  0  0  0  0  0  0  0  0  0  0
   19.4880   14.9410   13.6120 H   0  0  0  0  0  0  0  0  0  0  0  0
   22.3160   12.4760   13.9180 C   0  0  0  0  0  0  0  0  0  0  0  0
   23.2810   12.8030   12.9340 C   0  0  0  0  0  0  0  0  0  0  0  0
   24.4640   12.0500   12.8450 C   0  0  0  0  0  3  0  0  0  0  0  0
   24.6930   10.9820   13.7050 C   0  0  0  0  0  3  0  0  0  0  0  0
   22.5210   11.3500   14.7460 C   0  0  0  0  0  0  0  0  0  0  0  0
   23.7290   10.6360   14.6450 C   0  0  0  0  0  3  0  0  0  0  0  0
   23.1110   13.9620   11.9870 C   0  0  0  0  0  1  0  0  0  0  0  0
   21.5090   10.8300   15.7330 C   0  0  0  0  0  1  0  0  0  0  0  0
   17.8140   13.9880   12.7920 N   0  0  0  0  0  0  0  0  0  0  0  0
   17.5750   15.1480   11.9070 C   0  0  0  0  0  3  0  0  0  0  0  0
   16.7150   13.7420   13.7470 C   0  0  0  0  0  3  0  0  0  0  0  0
   17.2560   16.4310   12.6900 C   0  0  0  0  0  2  0  0  0  0  0  0
   16.3440   15.0030   14.5480 C   0  0  0  0  0  2  0  0  0  0  0  0
   16.0960   16.2170   13.6580 C   0  0  0  0  0  2  0  0  0  0  0  0
   18.7270   15.3770   10.9220 C   0  0  0  0  0  1  0  0  0  0  0  0
   15.4980   13.1360   13.0360 C   0  0  0  0  0  1  0  0  0  0  0  0
  1  5  1  0
  2  4  1  0
  2  1  1  0
  3  2  2  0
  4  6  1  0
  7  1  1  0
  7 11  1  0
  8  7  2  0
  9  8  1  0
  9 10  2  0
 10 12  1  0
 11 14  1  0
 12 11  2  0
 13  8  1  0
 15  4  1  0
 15 17  1  0
 16 21  1  0
 16 18  1  0
 16 15  1  0
 17 22  1  0
 17 19  1  0
 18 20  1  0
 20 19  1  0
M  RAD  8   9   2  10   2  12   2  13   2  14   2  16   2  17   2  18   3
M  RAD  4  19   3  20   3  21   2  22   2
M  END
>  <vina_score>  (5) 
-6.4459999999999997

>  <pose_id>  (5) 
5

$$$$
