
     RDKit          3D

 22 24  0  0  1  0  0  0  0  0999 V2000
   17.8980   12.0720   13.7980 C   0  0  0  0  0  1  0  0  0  0  0  0
   19.3180   12.4510   14.2760 C   0  0  2  0  0  0  0  0  0  0  0  0
   19.7140   11.4360   15.3640 C   0  0  0  0  0  1  0  0  0  0  0  0
   19.2810   13.8810   14.8620 C   0  0  0  0  0  2  0  0  0  0  0  0
   20.4700   14.7420   14.4330 C   0  0  0  0  0  3  0  0  0  0  0  0
   21.7600   13.9270   14.4040 C   0  0  0  0  0  2  0  0  0  0  0  0
   21.7770   12.8200   13.3140 C   0  0  1  0  0  0  0  0  0  0  0  0
   20.2810   12.3850   13.0630 C   0  0  0  0  0  2  0  0  0  0  0  0
   22.3470   13.4340   11.9800 C   0  0  0  0  0  2  0  0  0  0  0  0
   23.7340   12.8420   11.6060 C   0  0  2  0  0  0  0  0  0  0  0  0
   24.3180   13.5850   10.3990 C   0  0  0  0  0  1  0  0  0  0  0  0
   23.5380   11.3450   11.2700 C   0  0  0  0  0  2  0  0  0  0  0  0
   22.7580   10.6590   12.4000 C   0  0  0  0  0  3  0  0  0  0  0  0
   22.7390   11.5880   13.6640 C   0  0  0  0  0  3  0  0  0  0  0  0
   24.2380   12.0380   13.9800 C   0  0  1  0  0  0  0  0  0  0  0  0
   24.4110   12.7340   15.3500 C   0  0  0  0  0  1  0  0  0  0  0  0
   25.2130   10.8290   14.0720 C   0  0  0  0  0  1  0  0  0  0  0  0
   24.6890   12.9690   12.8230 C   0  0  0  0  0  2  0  0  0  0  0  0
   20.6260   15.8170   15.3550 O   0  0  0  0  0  0  0  0  0  0  0  0
   20.0850   16.5600   15.0340 H   0  0  0  0  0  0  0  0  0  0  0  0
   23.2920    9.3680   12.6660 O   0  0  0  0  0  0  0  0  0  0  0  0
   23.7520    9.4120   13.5220 H   0  0  0  0  0  0  0  0  0  0  0  0
  2  1  1  6
  4  2  1  0
  2  3  1  0
  5  4  1  0
  5 19  1  0
  5  6  1  6
  7  9  1  0
 14  7  1  0
  7  6  1  1
  8  7  1  0
  8  2  1  0
 10 11  1  6
 10  9  1  0
 10 18  1  0
 12 10  1  1
 13 12  1  0
 13 21  1  0
 13 14  1  0
 14 15  1  1
 15 17  1  1
 15 16  1  0
 18 15  1  0
 20 19  1  0
 21 22  1  0
M  END
>  <vina_score>  (1) 
-6.266

>  <pose_id>  (1) 
1

$$$$

     RDKit          3D

 22 24  0  0  1  0  0  0  0  0999 V2000
   22.2650   14.2580   11.4630 C   0  0  0  0  0  1  0  0  0  0  0  0
   23.2490   13.2020   12.0140 C   0  0  2  0  0  0  0  0  0  0  0  0
   24.0930   13.8950   13.1000 C   0  0  0  0  0  1  0  0  0  0  0  0
   24.1540   12.7140   10.8610 C   0  0  0  0  0  2  0  0  0  0  0  0
   24.3680   11.1990   10.8590 C   0  0  0  0  0  3  0  0  0  0  0  0
   24.5310   10.6630   12.2790 C   0  0  0  0  0  2  0  0  0  0  0  0
   23.2460   10.7870   13.1450 C   0  0  1  0  0  0  0  0  0  0  0  0
   22.4300   12.0230   12.6000 C   0  0  0  0  0  2  0  0  0  0  0  0
   22.3770    9.4890   12.9470 C   0  0  0  0  0  2  0  0  0  0  0  0
   22.3140    8.6210   14.2340 C   0  0  2  0  0  0  0  0  0  0  0  0
   21.5990    7.2970   13.9440 C   0  0  0  0  0  1  0  0  0  0  0  0
   21.5450    9.4210   15.3110 C   0  0  0  0  0  2  0  0  0  0  0  0
   22.1450   10.8290   15.4370 C   0  0  0  0  0  3  0  0  0  0  0  0
   23.5380   10.8710   14.7180 C   0  0  0  0  0  3  0  0  0  0  0  0
   24.4190    9.6530   15.2550 C   0  0  1  0  0  0  0  0  0  0  0  0
   25.9070    9.7210   14.8410 C   0  0  0  0  0  1  0  0  0  0  0  0
   24.4860    9.6090   16.8090 C   0  0  0  0  0  1  0  0  0  0  0  0
   23.7570    8.3480   14.7360 C   0  0  0  0  0  2  0  0  0  0  0  0
   25.5450   10.8950   10.1160 O   0  0  0  0  0  0  0  0  0  0  0  0
   26.3100   11.1600   10.6560 H   0  0  0  0  0  0  0  0  0  0  0  0
   22.2090   11.2260   16.8010 O   0  0  0  0  0  0  0  0  0  0  0  0
   22.8730   10.6660   17.2370 H   0  0  0  0  0  0  0  0  0  0  0  0
  2  1  1  6
  2  8  1  0
  2  3  1  0
  4  2  1  0
  5 19  1  0
  5  4  1  0
  5  6  1  1
  7  6  1  6
 14  7  1  0
  8  7  1  0
  9  7  1  0
  9 10  1  0
 10 11  1  6
 10 18  1  0
 12 10  1  6
 13 12  1  0
 13 21  1  0
 14 15  1  1
 13 14  1  0
 15 17  1  1
 16 15  1  0
 18 15  1  0
 19 20  1  0
 21 22  1  0
M  END
>  <vina_score>  (2) 
-6.1479999999999997

>  <pose_id>  (2) 
2

$$$$

     RDKit          3D

 22 24  0  0  1  0  0  0  0  0999 V2000
   24.3750   13.6710   12.0290 C   0  0  0  0  0  1  0  0  0  0  0  0
   23.6360   12.3520   12.3430 C   0  0  2  0  0  0  0  0  0  0  0  0
   24.1790   11.2870   11.3730 C   0  0  0  0  0  1  0  0  0  0  0  0
   22.1210   12.5630   12.1170 C   0  0  0  0  0  2  0  0  0  0  0  0
   21.2530   11.9400   13.2110 C   0  0  0  0  0  3  0  0  0  0  0  0
   21.8100   10.5900   13.6570 C   0  0  0  0  0  2  0  0  0  0  0  0
   23.1840   10.6870   14.3780 C   0  0  1  0  0  0  0  0  0  0  0  0
   23.9170   11.9690   13.8200 C   0  0  0  0  0  2  0  0  0  0  0  0
   22.9310   10.8900   15.9190 C   0  0  0  0  0  2  0  0  0  0  0  0
   23.3720    9.6560   16.7540 C   0  0  2  0  0  0  0  0  0  0  0  0
   22.9580    9.8330   18.2190 C   0  0  0  0  0  1  0  0  0  0  0  0
   24.9100    9.5310   16.6440 C   0  0  0  0  0  2  0  0  0  0  0  0
   25.3280    9.5710   15.1670 C   0  0  0  0  0  3  0  0  0  0  0  0
   24.0670    9.3560   14.2590 C   0  0  0  0  0  3  0  0  0  0  0  0
   23.2990    8.0510   14.7640 C   0  0  1  0  0  0  0  0  0  0  0  0
   22.1910    7.5600   13.8040 C   0  0  0  0  0  1  0  0  0  0  0  0
   24.2390    6.8170   14.8800 C   0  0  0  0  0  1  0  0  0  0  0  0
   22.7150    8.3790   16.1640 C   0  0  0  0  0  2  0  0  0  0  0  0
   19.9330   11.7480   12.7090 O   0  0  0  0  0  0  0  0  0  0  0  0
   19.3930   12.5010   13.0080 H   0  0  0  0  0  0  0  0  0  0  0  0
   26.3640    8.6300   14.9140 O   0  0  0  0  0  0  0  0  0  0  0  0
   27.1750    8.9690   15.3310 H   0  0  0  0  0  0  0  0  0  0  0  0
  2  1  1  6
  2  8  1  0
  3  2  1  0
  4  2  1  1
  5  4  1  0
  5 19  1  0
  5  6  1  0
  6  7  1  1
  7  9  1  0
  8  7  1  0
  9 10  1  0
 10 11  1  1
 12 10  1  1
 13 21  1  0
 13 12  1  1
 14  7  1  0
 14 15  1  0
 13 14  1  0
 15 17  1  1
 15 18  1  0
 16 15  1  0
 18 10  1  0
 19 20  1  0
 21 22  1  0
M  END
>  <vina_score>  (3) 
-6.0099999999999998

>  <pose_id>  (3) 
3

$$$$

     RDKit          3D

 22 24  0  0  1  0  0  0  0  0999 V2000
   15.0900   16.1360   15.7050 C   0  0  0  0  0  1  0  0  0  0  0  0
   16.2480   15.6530   14.8040 C   0  0  2  0  0  0  0  0  0  0  0  0
   17.5340   16.3210   15.3240 C   0  0  0  0  0  1  0  0  0  0  0  0
   15.9650   16.0900   13.3490 C   0  0  0  0  0  2  0  0  0  0  0  0
   16.2710   15.0030   12.3190 C   0  0  0  0  0  3  0  0  0  0  0  0
   17.5380   14.2350   12.6860 C   0  0  0  0  0  2  0  0  0  0  0  0
   17.4060   13.3940   13.9860 C   0  0  1  0  0  0  0  0  0  0  0  0
   16.3350   14.1070   14.9000 C   0  0  0  0  0  2  0  0  0  0  0  0
   16.8650   11.9640   13.6090 C   0  0  0  0  0  2  0  0  0  0  0  0
   17.9290   10.8540   13.8360 C   0  0  2  0  0  0  0  0  0  0  0  0
   17.4150    9.5120   13.3020 C   0  0  0  0  0  1  0  0  0  0  0  0
   18.2000   10.7580   15.3550 C   0  0  0  0  0  2  0  0  0  0  0  0
   18.5050   12.1540   15.9160 C   0  0  0  0  0  3  0  0  0  0  0  0
   18.8000   13.1410   14.7330 C   0  0  0  0  0  3  0  0  0  0  0  0
   19.9030   12.4790   13.7870 C   0  0  1  0  0  0  0  0  0  0  0  0
   20.4910   13.4440   12.7320 C   0  0  0  0  0  1  0  0  0  0  0  0
   21.1590   12.0110   14.5780 C   0  0  0  0  0  1  0  0  0  0  0  0
   19.2420   11.2500   13.1080 C   0  0  0  0  0  2  0  0  0  0  0  0
   16.4540   15.6070   11.0410 O   0  0  0  0  0  0  0  0  0  0  0  0
   16.9310   14.9690   10.4810 H   0  0  0  0  0  0  0  0  0  0  0  0
   19.5600   12.0930   16.8670 O   0  0  0  0  0  0  0  0  0  0  0  0
   19.8300   11.1620   16.9450 H   0  0  0  0  0  0  0  0  0  0  0  0
  2  8  1  0
  2  3  1  1
  2  1  1  0
  4  2  1  0
  5 19  1  0
  5  6  1  0
  5  4  1  1
  7  6  1  6
 14  7  1  0
  7  8  1  0
  9 10  1  0
  9  7  1  0
 10 11  1  6
 12 10  1  6
 13 12  1  6
 13 21  1  0
 14 15  1  0
 13 14  1  0
 15 17  1  1
 16 15  1  0
 18 15  1  0
 18 10  1  0
 20 19  1  0
 21 22  1  0
M  END
>  <vina_score>  (4) 
-5.968

>  <pose_id>  (4) 
4

$$$$

     RDKit          3D

 22 24  0  0  1  0  0  0  0  0999 V2000
   18.9440   13.3700   15.4690 C   0  0  0  0  0  1  0  0  0  0  0  0
   18.2500   12.2370   16.2570 C   0  0  2  0  0  0  0  0  0  0  0  0
   18.5180   10.9260   15.4960 C   0  0  0  0  0  1  0  0  0  0  0  0
   16.7320   12.5250   16.3140 C   0  0  0  0  0  2  0  0  0  0  0  0
   16.1160   12.2630   17.6890 C   0  0  0  0  0  3  0  0  0  0  0  0
   16.7130   11.0140   18.3320 C   0  0  0  0  0  2  0  0  0  0  0  0
   18.2170   11.1540   18.6950 C   0  0  1  0  0  0  0  0  0  0  0  0
   18.8480   12.1930   17.6870 C   0  0  0  0  0  2  0  0  0  0  0  0
   18.3320   11.7410   20.1520 C   0  0  0  0  0  2  0  0  0  0  0  0
   18.9090   10.7060   21.1580 C   0  0  2  0  0  0  0  0  0  0  0  0
   18.8480   11.2650   22.5840 C   0  0  0  0  0  1  0  0  0  0  0  0
   20.3750   10.4190   20.7580 C   0  0  0  0  0  2  0  0  0  0  0  0
   20.4450   10.0670   19.2650 C   0  0  0  0  0  3  0  0  0  0  0  0
   19.0020    9.7590   18.7310 C   0  0  0  0  0  3  0  0  0  0  0  0
   18.3250    8.6870   19.7020 C   0  0  1  0  0  0  0  0  0  0  0  0
   17.0100    8.0850   19.1550 C   0  0  0  0  0  1  0  0  0  0  0  0
   19.2230    7.4360   19.9230 C   0  0  0  0  0  1  0  0  0  0  0  0
   18.0890    9.3920   21.0650 C   0  0  0  0  0  2  0  0  0  0  0  0
   14.7110   12.0780   17.5440 O   0  0  0  0  0  0  0  0  0  0  0  0
   14.5030   12.1400   16.5950 H   0  0  0  0  0  0  0  0  0  0  0  0
   21.3610    9.0030   19.0430 O   0  0  0  0  0  0  0  0  0  0  0  0
   21.6630    8.6920   19.9140 H   0  0  0  0  0  0  0  0  0  0  0  0
  2  1  1  6
  4  2  1  0
  2  8  1  0
  3  2  1  0
  4  5  1  0
  5 19  1  0
  5  6  1  1
  7  6  1  6
  7  8  1  0
 14  7  1  0
  7  9  1  0
  9 10  1  0
 10 11  1  1
 12 10  1  1
 13 21  1  0
 13 12  1  1
 13 14  1  0
 14 15  1  0
 15 17  1  1
 15 18  1  0
 16 15  1  0
 18 10  1  0
 20 19  1  0
 21 22  1  0
M  END
>  <vina_score>  (5) 
-5.9450000000000003

>  <pose_id>  (5) 
5

$$$$
