
     RDKit          3D

 38 40  0  0  1  0  0  0  0  0999 V2000
   16.7720   10.7970   20.0110 C   0  0  0  0  0  0  0  0  0  0  0  0
   15.4350   10.6590   20.2050 N   0  0  0  0  0  0  0  0  0  0  0  0
   14.5860   11.2000   19.3050 C   0  0  0  0  0  3  0  0  0  0  0  0
   14.8780   11.8950   18.1850 N   0  0  0  0  0  0  0  0  0  0  0  0
   16.2100   11.9940   18.0270 C   0  0  0  0  0  0  0  0  0  0  0  0
   17.1950   11.4960   18.8630 C   0  0  0  0  0  0  0  0  0  0  0  0
   18.4500   11.7960   18.3740 N   0  0  0  0  0  0  0  0  0  0  0  0
   18.2280   12.4560   17.2560 C   0  0  0  0  0  3  0  0  0  0  0  0
   16.8900   12.6160   17.0110 N   0  0  0  0  0  0  0  0  0  0  0  0
   17.6950   10.2700   20.9190 N   0  0  0  0  0  0  0  0  0  0  0  0
   17.2130    9.5620   21.4770 H   0  0  0  0  0  0  0  0  0  0  0  0
   18.4910   11.2170   21.7380 C   0  0  0  0  0  3  0  0  0  0  0  0
   18.1280   11.1030   23.2200 C   0  0  0  0  0  2  0  0  0  0  0  0
   16.9000   11.8870   23.5860 C   0  0  0  0  0  0  0  0  0  0  0  0
   16.8770   12.8780   24.3000 O   0  0  0  0  0  0  0  0  0  0  0  0
   15.7460   11.3630   23.1380 O   0  0  0  0  0  0  0  0  0  0  0  0
   15.0730   11.7270   23.7520 H   0  0  0  0  0  0  0  0  0  0  0  0
   19.9980   11.0890   21.4620 C   0  0  0  0  0  0  0  0  0  0  0  0
   20.7340   10.1880   21.8430 O   0  0  0  0  0  0  0  0  0  0  0  0
   20.4960   12.0390   20.6440 O   0  0  0  0  0  0  0  0  0  0  0  0
   21.4610   12.0090   20.8120 H   0  0  0  0  0  0  0  0  0  0  0  0
   16.2770   13.2770   15.8720 C   0  0  0  0  0  3  0  0  0  0  0  0
   16.6390   12.5740   14.6610 O   0  0  0  0  0  0  0  0  0  0  0  0
   16.7320   14.7330   15.6940 C   0  0  0  0  0  3  0  0  0  0  0  0
   16.9930   13.5530   13.6530 C   0  0  0  0  0  3  0  0  0  0  0  0
   16.5670   14.9140   14.1980 C   0  0  0  0  0  3  0  0  0  0  0  0
   15.9360   15.6920   16.3950 O   0  0  0  0  0  0  0  0  0  0  0  0
   15.9620   16.5160   15.8600 H   0  0  0  0  0  0  0  0  0  0  0  0
   18.4960   13.4480   13.3920 C   0  0  0  0  0  2  0  0  0  0  0  0
   19.1110   14.7130   13.5490 O   0  0  0  0  0  0  0  0  0  0  0  0
   20.5750   14.7720   14.1880 P   0  0  1  0  0  0  0  0  0  0  0  0
   21.6930   15.0860   13.2570 O   0  0  0  0  0  0  0  0  0  0  0  0
   20.4710   15.7940   15.4090 O   0  0  0  0  0  0  0  0  0  0  0  0
   19.6630   16.3350   15.3340 H   0  0  0  0  0  0  0  0  0  0  0  0
   20.7600   13.3690   14.9220 O   0  0  0  0  0  0  0  0  0  0  0  0
   21.3870   12.8040   14.4320 H   0  0  0  0  0  0  0  0  0  0  0  0
   15.1770   15.1410   13.9140 O   0  0  0  0  0  0  0  0  0  0  0  0
   14.7870   14.2470   13.8180 H   0  0  0  0  0  0  0  0  0  0  0  0
  1  2  1  0
 10  1  1  0
  3  2  2  0
  4  3  1  0
  5  4  2  0
  5  6  1  0
  6  1  2  0
  7  6  1  0
  8  7  2  0
  9  8  1  0
  9  5  1  0
 10 11  1  1
 12 10  1  0
 12 13  1  1
 13 14  1  0
 14 15  2  0
 16 14  1  0
 16 17  1  0
 12 18  1  0
 18 19  2  0
 20 21  1  0
 18 20  1  0
 22  9  1  0
 22 23  1  0
 24 22  1  0
 24 27  1  0
 25 29  1  0
 25 26  1  0
 25 23  1  0
 26 37  1  0
 26 24  1  6
 28 27  1  0
 29 30  1  0
 31 30  1  6
 31 35  1  0
 31 33  1  0
 32 31  2  0
 34 33  1  0
 36 35  1  0
 38 37  1  0
M  END
>  <vina_score>  (1) 
-7.1120000000000001

>  <pose_id>  (1) 
1

$$$$

     RDKit          3D

 38 40  0  0  1  0  0  0  0  0999 V2000
   20.7510   10.2020   18.3900 C   0  0  0  0  0  0  0  0  0  0  0  0
   21.8280   10.1210   19.2140 N   0  0  0  0  0  0  0  0  0  0  0  0
   23.0660   10.1440   18.6750 C   0  0  0  0  0  3  0  0  0  0  0  0
   23.4150   10.2370   17.3740 N   0  0  0  0  0  0  0  0  0  0  0  0
   22.3200   10.3290   16.5990 C   0  0  0  0  0  0  0  0  0  0  0  0
   20.9970   10.3160   17.0070 C   0  0  0  0  0  0  0  0  0  0  0  0
   20.1480   10.4280   15.9250 N   0  0  0  0  0  0  0  0  0  0  0  0
   20.9450   10.5160   14.8800 C   0  0  0  0  0  3  0  0  0  0  0  0
   22.2670   10.4450   15.2340 N   0  0  0  0  0  0  0  0  0  0  0  0
   19.4470   10.1680   18.8940 N   0  0  0  0  0  0  0  0  0  0  0  0
   19.0830   11.1230   18.8780 H   0  0  0  0  0  0  0  0  0  0  0  0
   19.2130    9.4750   20.1850 C   0  0  0  0  0  3  0  0  0  0  0  0
   18.3590   10.3310   21.1220 C   0  0  0  0  0  2  0  0  0  0  0  0
   19.1740   11.1060   22.1180 C   0  0  0  0  0  0  0  0  0  0  0  0
   18.7560   11.5750   23.1650 O   0  0  0  0  0  0  0  0  0  0  0  0
   20.4390   11.3520   21.7360 O   0  0  0  0  0  0  0  0  0  0  0  0
   20.9780   10.9590   22.4550 H   0  0  0  0  0  0  0  0  0  0  0  0
   18.6690    8.0510   19.9820 C   0  0  0  0  0  0  0  0  0  0  0  0
   17.5530    7.7500   19.5820 O   0  0  0  0  0  0  0  0  0  0  0  0
   19.5740    7.0750   20.1970 O   0  0  0  0  0  0  0  0  0  0  0  0
   20.0650    7.0210   19.3500 H   0  0  0  0  0  0  0  0  0  0  0  0
   23.4190   10.5210   14.3520 C   0  0  0  0  0  3  0  0  0  0  0  0
   23.9950   11.8450   14.4340 O   0  0  0  0  0  0  0  0  0  0  0  0
   23.0730   10.2770   12.8760 C   0  0  0  0  0  3  0  0  0  0  0  0
   24.3080   12.2910   13.0910 C   0  0  0  0  0  3  0  0  0  0  0  0
   24.1600   11.0740   12.1810 C   0  0  0  0  0  3  0  0  0  0  0  0
   23.1350    8.9080   12.4710 O   0  0  0  0  0  0  0  0  0  0  0  0
   23.7940    8.4750   13.0590 H   0  0  0  0  0  0  0  0  0  0  0  0
   23.3560   13.4330   12.7340 C   0  0  0  0  0  2  0  0  0  0  0  0
   22.4740   13.6930   13.8100 O   0  0  0  0  0  0  0  0  0  0  0  0
   21.4010   14.8660   13.6470 P   0  0  1  0  0  0  0  0  0  0  0  0
   20.1590   14.5300   12.9010 O   0  0  0  0  0  0  0  0  0  0  0  0
   21.1210   15.4020   15.1230 O   0  0  0  0  0  0  0  0  0  0  0  0
   21.4620   16.3100   15.2280 H   0  0  0  0  0  0  0  0  0  0  0  0
   22.2090   16.0730   12.9860 O   0  0  0  0  0  0  0  0  0  0  0  0
   21.7950   16.3440   12.1450 H   0  0  0  0  0  0  0  0  0  0  0  0
   25.3730   10.3040   12.1950 O   0  0  0  0  0  0  0  0  0  0  0  0
   25.8170   10.5430   13.0360 H   0  0  0  0  0  0  0  0  0  0  0  0
 10  1  1  0
  1  2  1  0
  3  2  2  0
  4  3  1  0
  5  6  1  0
  5  4  2  0
  6  1  2  0
  7  6  1  0
  8  9  1  0
  8  7  2  0
  9  5  1  0
 10 12  1  0
 10 11  1  0
 12 13  1  1
 13 14  1  0
 14 15  2  0
 16 14  1  0
 16 17  1  0
 12 18  1  0
 18 20  1  0
 19 18  2  0
 21 20  1  0
 22 23  1  1
 22  9  1  0
 24 27  1  0
 24 22  1  1
 25 29  1  0
 25 23  1  0
 26 37  1  0
 26 24  1  1
 26 25  1  0
 27 28  1  0
 29 30  1  0
 31 30  1  1
 31 33  1  0
 32 31  2  0
 33 34  1  0
 35 31  1  0
 36 35  1  0
 37 38  1  0
M  END
>  <vina_score>  (2) 
-6.6269999999999998

>  <pose_id>  (2) 
2

$$$$

     RDKit          3D

 38 40  0  0  1  0  0  0  0  0999 V2000
   23.0450    9.3850   13.6310 C   0  0  0  0  0  0  0  0  0  0  0  0
   22.6130    8.4070   12.7930 N   0  0  0  0  0  0  0  0  0  0  0  0
   21.6300    7.5790   13.2070 C   0  0  0  0  0  3  0  0  0  0  0  0
   20.9780    7.5730   14.3900 N   0  0  0  0  0  0  0  0  0  0  0  0
   21.4280    8.5640   15.1800 C   0  0  0  0  0  0  0  0  0  0  0  0
   22.4250    9.4810   14.8930 C   0  0  0  0  0  0  0  0  0  0  0  0
   22.6140   10.3470   15.9500 N   0  0  0  0  0  0  0  0  0  0  0  0
   21.7390    9.9660   16.8590 C   0  0  0  0  0  3  0  0  0  0  0  0
   21.0100    8.8820   16.4460 N   0  0  0  0  0  0  0  0  0  0  0  0
   24.0700   10.2600   13.2580 N   0  0  0  0  0  0  0  0  0  0  0  0
   24.4760   10.6450   14.1140 H   0  0  0  0  0  0  0  0  0  0  0  0
   23.7720   11.2930   12.2370 C   0  0  0  0  0  3  0  0  0  0  0  0
   24.1250   12.6900   12.7480 C   0  0  0  0  0  2  0  0  0  0  0  0
   24.2240   12.7620   14.2450 C   0  0  0  0  0  0  0  0  0  0  0  0
   25.2370   12.5710   14.9000 O   0  0  0  0  0  0  0  0  0  0  0  0
   23.0530   12.9680   14.8740 O   0  0  0  0  0  0  0  0  0  0  0  0
   22.6830   13.7560   14.4220 H   0  0  0  0  0  0  0  0  0  0  0  0
   24.4050   10.9550   10.8770 C   0  0  0  0  0  0  0  0  0  0  0  0
   24.1600    9.9780   10.1830 O   0  0  0  0  0  0  0  0  0  0  0  0
   25.2440   11.9000   10.4040 O   0  0  0  0  0  0  0  0  0  0  0  0
   25.8570   11.3990    9.8260 H   0  0  0  0  0  0  0  0  0  0  0  0
   19.9520    8.2040   17.1770 C   0  0  0  0  0  3  0  0  0  0  0  0
   18.8060    9.0800   17.2800 O   0  0  0  0  0  0  0  0  0  0  0  0
   20.3500    7.8210   18.6100 C   0  0  0  0  0  3  0  0  0  0  0  0
   18.2960    9.0060   18.6340 C   0  0  0  0  0  3  0  0  0  0  0  0
   19.0020    7.8300   19.3040 C   0  0  0  0  0  3  0  0  0  0  0  0
   20.9560    6.5310   18.7320 O   0  0  0  0  0  0  0  0  0  0  0  0
   21.7390    6.6470   19.3140 H   0  0  0  0  0  0  0  0  0  0  0  0
   18.5670   10.3460   19.3200 C   0  0  0  0  0  2  0  0  0  0  0  0
   18.3620   10.2320   20.7160 O   0  0  0  0  0  0  0  0  0  0  0  0
   19.4490   10.8710   21.6980 P   0  0  1  0  0  0  0  0  0  0  0  0
   18.9500   11.3650   23.0100 O   0  0  0  0  0  0  0  0  0  0  0  0
   20.6010    9.7760   21.8360 O   0  0  0  0  0  0  0  0  0  0  0  0
   20.6790    9.4780   22.7610 H   0  0  0  0  0  0  0  0  0  0  0  0
   20.1570   12.0150   20.8390 O   0  0  0  0  0  0  0  0  0  0  0  0
   19.5440   12.7580   20.6840 H   0  0  0  0  0  0  0  0  0  0  0  0
   18.3170    6.6060   18.9910 O   0  0  0  0  0  0  0  0  0  0  0  0
   17.6550    6.8520   18.3110 H   0  0  0  0  0  0  0  0  0  0  0  0
  1  6  1  0
  2  3  1  0
  2  1  2  0
  3  4  2  0
  4  5  1  0
  5  9  1  0
  6  5  2  0
  6  7  1  0
  7  8  2  0
  9  8  1  0
 10  1  1  0
 10 11  1  0
 12 13  1  1
 12 10  1  0
 13 14  1  0
 14 16  1  0
 14 15  2  0
 17 16  1  0
 12 18  1  0
 19 18  2  0
 20 18  1  0
 21 20  1  0
 22  9  1  0
 22 23  1  1
 24 22  1  6
 25 23  1  0
 24 27  1  0
 26 24  1  6
 26 25  1  0
 25 29  1  0
 26 37  1  0
 27 28  1  0
 29 30  1  0
 31 30  1  6
 31 33  1  0
 31 32  2  0
 33 34  1  0
 35 31  1  0
 36 35  1  0
 38 37  1  0
M  END
>  <vina_score>  (3) 
-6.6139999999999999

>  <pose_id>  (3) 
3

$$$$

     RDKit          3D

 38 40  0  0  1  0  0  0  0  0999 V2000
   18.5980   10.4210   17.1180 C   0  0  0  0  0  0  0  0  0  0  0  0
   18.3040    9.3210   16.3780 N   0  0  0  0  0  0  0  0  0  0  0  0
   17.6460    9.4760   15.2090 C   0  0  0  0  0  3  0  0  0  0  0  0
   17.2100   10.6180   14.6340 N   0  0  0  0  0  0  0  0  0  0  0  0
   17.5350   11.6800   15.3940 C   0  0  0  0  0  0  0  0  0  0  0  0
   18.2000   11.6730   16.6080 C   0  0  0  0  0  0  0  0  0  0  0  0
   18.3510   12.9570   17.0910 N   0  0  0  0  0  0  0  0  0  0  0  0
   17.7940   13.7280   16.1800 C   0  0  0  0  0  3  0  0  0  0  0  0
   17.2710   13.0020   15.1430 N   0  0  0  0  0  0  0  0  0  0  0  0
   19.2640   10.3150   18.3420 N   0  0  0  0  0  0  0  0  0  0  0  0
   19.5540    9.3410   18.4560 H   0  0  0  0  0  0  0  0  0  0  0  0
   18.6050   10.8730   19.5490 C   0  0  0  0  0  0  0  0  0  0  0  0
   17.9170    9.7730   20.3580 C   0  0  0  0  0  2  0  0  0  0  0  0
   18.5870    8.4350   20.2200 C   0  0  0  0  0  0  0  0  0  0  0  0
   18.1590    7.4900   19.5760 O   0  0  0  0  0  0  0  0  0  0  0  0
   19.7010    8.2870   20.9590 O   0  0  0  0  0  0  0  0  0  0  0  0
   19.5230    8.8300   21.7560 H   0  0  0  0  0  0  0  0  0  0  0  0
   19.5660   11.7400   20.3790 C   0  0  0  0  0  0  0  0  0  0  0  0
   20.0240   11.4680   21.4800 O   0  0  0  0  0  0  0  0  0  0  0  0
   19.9830   12.8600   19.7540 O   0  0  0  0  0  0  0  0  0  0  0  0
   20.6970   12.5450   19.1610 H   0  0  0  0  0  0  0  0  0  0  0  0
   16.5990   13.5150   13.9610 C   0  0  0  0  0  0  0  0  0  0  0  0
   17.4990   13.4420   12.8310 O   0  0  0  0  0  0  0  0  0  0  0  0
   16.1690   14.9830   14.0940 C   0  0  0  0  0  0  0  0  0  0  0  0
   17.4010   14.6830   12.0900 C   0  0  0  0  0  0  0  0  0  0  0  0
   16.1910   15.4300   12.6450 C   0  0  0  0  0  0  0  0  0  0  0  0
   14.8630   15.1700   14.6450 O   0  0  0  0  0  0  0  0  0  0  0  0
   14.2310   15.0740   13.8970 H   0  0  0  0  0  0  0  0  0  0  0  0
   18.7150   15.4470   12.2600 C   0  0  0  0  0  2  0  0  0  0  0  0
   19.8100   14.5500   12.2360 O   0  0  0  0  0  0  0  0  0  0  0  0
   20.9790   14.7500   13.3080 P   0  0  1  0  0  0  0  0  0  0  0  0
   21.6430   13.5150   13.8050 O   0  0  0  0  0  0  0  0  0  0  0  0
   21.9950   15.7870   12.6470 O   0  0  0  0  0  0  0  0  0  0  0  0
   22.8020   15.8680   13.1900 H   0  0  0  0  0  0  0  0  0  0  0  0
   20.3190   15.6080   14.4800 O   0  0  0  0  0  0  0  0  0  0  0  0
   19.5300   16.0820   14.1570 H   0  0  0  0  0  0  0  0  0  0  0  0
   14.9930   14.9650   12.0030 O   0  0  0  0  0  0  0  0  0  0  0  0
   14.8140   14.0870   12.4020 H   0  0  0  0  0  0  0  0  0  0  0  0
  1 10  1  0
  2  1  1  0
  3  2  2  0
  4  3  1  0
  4  5  2  0
  5  6  1  0
  6  7  1  0
  6  1  2  0
  8  7  2  0
  9  5  1  0
  9  8  1  0
 10 11  1  0
 10 12  1  0
 12 13  1  0
 12 18  1  0
 14 13  1  0
 14 16  1  0
 15 14  2  0
 16 17  1  0
 18 19  2  0
 20 18  1  0
 21 20  1  0
 22 24  1  0
 22  9  1  0
 23 22  1  0
 24 27  1  0
 25 29  1  0
 25 26  1  0
 25 23  1  0
 26 37  1  0
 26 24  1  0
 28 27  1  0
 30 29  1  0
 31 30  1  6
 31 32  2  0
 31 35  1  0
 33 34  1  0
 33 31  1  0
 36 35  1  0
 37 38  1  0
M  RAD  4   3   2   8   2  13   3  29   3
M  END
>  <vina_score>  (4) 
-6.5860000000000003

>  <pose_id>  (4) 
4

$$$$

     RDKit          3D

 38 40  0  0  1  0  0  0  0  0999 V2000
   22.9400   10.9460   14.7850 C   0  0  0  0  0  0  0  0  0  0  0  0
   24.1880   10.5730   15.1700 N   0  0  0  0  0  0  0  0  0  0  0  0
   24.3790   10.1410   16.4360 C   0  0  0  0  0  3  0  0  0  0  0  0
   23.4730   10.0180   17.4290 N   0  0  0  0  0  0  0  0  0  0  0  0
   22.2520   10.3840   16.9980 C   0  0  0  0  0  0  0  0  0  0  0  0
   21.9080   10.8470   15.7400 C   0  0  0  0  0  0  0  0  0  0  0  0
   20.5580   11.1250   15.6710 N   0  0  0  0  0  0  0  0  0  0  0  0
   20.0920   10.8270   16.8660 C   0  0  0  0  0  3  0  0  0  0  0  0
   21.0800   10.3900   17.7090 N   0  0  0  0  0  0  0  0  0  0  0  0
   22.6900   11.4150   13.4920 N   0  0  0  0  0  0  0  0  0  0  0  0
   22.9920   10.6920   12.8350 H   0  0  0  0  0  0  0  0  0  0  0  0
   23.1750   12.7700   13.1320 C   0  0  0  0  0  3  0  0  0  0  0  0
   24.1920   12.7050   11.9930 C   0  0  0  0  0  2  0  0  0  0  0  0
   24.3080   11.3370   11.3830 C   0  0  0  0  0  0  0  0  0  0  0  0
   23.6640   10.9280   10.4290 O   0  0  0  0  0  0  0  0  0  0  0  0
   25.1370   10.5030   12.0340 O   0  0  0  0  0  0  0  0  0  0  0  0
   25.9890   10.9900   12.0510 H   0  0  0  0  0  0  0  0  0  0  0  0
   22.0140   13.7430   12.8690 C   0  0  0  0  0  0  0  0  0  0  0  0
   22.0170   14.6830   12.0850 O   0  0  0  0  0  0  0  0  0  0  0  0
   20.8760   13.4420   13.5260 O   0  0  0  0  0  0  0  0  0  0  0  0
   20.4960   14.3170   13.7500 H   0  0  0  0  0  0  0  0  0  0  0  0
   20.9320    9.9630   19.0900 C   0  0  0  0  0  3  0  0  0  0  0  0
   19.8730    8.9820   19.1760 O   0  0  0  0  0  0  0  0  0  0  0  0
   20.5600   11.1060   20.0450 C   0  0  0  0  0  3  0  0  0  0  0  0
   19.0530    9.2950   20.3280 C   0  0  0  0  0  3  0  0  0  0  0  0
   19.8090   10.3540   21.1270 C   0  0  0  0  0  3  0  0  0  0  0  0
   21.6770   11.7930   20.6110 O   0  0  0  0  0  0  0  0  0  0  0  0
   21.8340   12.5810   20.0440 H   0  0  0  0  0  0  0  0  0  0  0  0
   17.6890    9.7730   19.8290 C   0  0  0  0  0  2  0  0  0  0  0  0
   16.7900    9.9120   20.9140 O   0  0  0  0  0  0  0  0  0  0  0  0
   15.2510    9.5560   20.6740 P   0  0  1  0  0  0  0  0  0  0  0  0
   14.7410    8.3290   21.3440 O   0  0  0  0  0  0  0  0  0  0  0  0
   14.4390   10.8710   21.0710 O   0  0  0  0  0  0  0  0  0  0  0  0
   13.4910   10.6680   21.1790 H   0  0  0  0  0  0  0  0  0  0  0  0
   15.0810    9.5070   19.0890 O   0  0  0  0  0  0  0  0  0  0  0  0
   15.0290   10.4100   18.7200 H   0  0  0  0  0  0  0  0  0  0  0  0
   20.7650    9.7220   21.9940 O   0  0  0  0  0  0  0  0  0  0  0  0
   20.6810   10.1910   22.8510 H   0  0  0  0  0  0  0  0  0  0  0  0
  1  2  2  0
  1  6  1  0
  2  3  1  0
  3  4  2  0
  5  4  1  0
  5  9  1  0
  6  5  2  0
  7  6  1  0
  7  8  2  0
  8  9  1  0
 10  1  1  1
 10 11  1  0
 12 13  1  0
 12 10  1  1
 14 13  1  0
 14 16  1  0
 15 14  2  0
 16 17  1  0
 12 18  1  0
 18 20  1  0
 19 18  2  0
 20 21  1  0
 22  9  1  0
 22 23  1  1
 24 22  1  6
 25 23  1  0
 24 27  1  0
 26 24  1  6
 25 29  1  0
 26 25  1  0
 26 37  1  0
 28 27  1  0
 29 30  1  0
 31 30  1  6
 31 33  1  0
 31 32  2  0
 33 34  1  0
 35 31  1  0
 36 35  1  0
 37 38  1  0
M  END
>  <vina_score>  (5) 
-6.5599999999999996

>  <pose_id>  (5) 
5

$$$$
