
     RDKit          3D

 20 22  0  0  1  0  0  0  0  0999 V2000
   17.5430   11.2940   18.4510 N   0  0  0  0  0  0  0  0  0  0  0  0
   17.5880   12.3090   17.5010 C   0  0  0  0  0  0  0  0  0  0  0  0
   18.6090   12.9290   17.2200 O   0  0  0  0  0  0  0  0  0  0  0  0
   16.7610   10.6630   18.3450 H   0  0  0  0  0  0  0  0  0  0  0  0
   18.7270   10.7440   19.1600 C   0  0  2  0  0  0  0  0  0  0  0  0
   18.2770    9.7570   20.3510 C   0  0  1  0  0  0  0  0  0  0  0  0
   18.7920   10.5230   21.6200 C   0  0  0  0  0  3  0  0  0  0  0  0
   20.3250   10.4840   21.7430 C   0  0  0  0  0  2  0  0  0  0  0  0
   18.5860   11.9910   21.2300 C   0  0  0  0  0  2  0  0  0  0  0  0
   19.4580   11.8730   19.9760 C   0  0  0  0  0  3  0  0  0  0  0  0
   20.7830   11.3910   20.5970 C   0  0  0  0  0  2  0  0  0  0  0  0
   16.7410    9.5860   20.4950 C   0  0  0  0  0  1  0  0  0  0  0  0
   18.8380    8.3240   20.2570 C   0  0  0  0  0  1  0  0  0  0  0  0
   19.6260   10.0910   18.0950 C   0  0  0  0  0  1  0  0  0  0  0  0
   16.2120   12.5930   16.8650 C   0  0  0  0  0  2  0  0  0  0  0  0
   16.1430   13.7780   16.0000 N   0  0  0  0  0  0  0  0  0  0  0  0
   15.3980   14.9100   16.5450 C   0  0  0  0  0  2  0  0  0  0  0  0
   15.6130   13.5370   14.6610 C   0  0  0  0  0  2  0  0  0  0  0  0
   15.1460   15.8010   15.3300 C   0  0  0  0  0  2  0  0  0  0  0  0
   15.5240   14.9530   14.1200 C   0  0  0  0  0  2  0  0  0  0  0  0
  1  5  1  0
  2  1  1  0
  3  2  2  0
  4  1  1  0
  5 14  1  6
 10  5  1  0
  5  6  1  0
  6 12  1  1
  7  6  1  6
  9  7  1  0
  7  8  1  0
 10 11  1  1
 10  9  1  0
  8 11  1  0
 13  6  1  0
 15  2  1  0
 16 17  1  0
 16 15  1  0
 18 16  1  0
 19 17  1  0
 20 18  1  0
 20 19  1  0
M  END
>  <vina_score>  (1) 
-6.1920000000000002

>  <pose_id>  (1) 
1

$$$$

     RDKit          3D

 20 22  0  0  1  0  0  0  0  0999 V2000
   18.6020   13.6070   13.0620 N   0  0  0  0  0  0  0  0  0  0  0  0
   19.6710   12.9200   13.6280 C   0  0  0  0  0  0  0  0  0  0  0  0
   19.6250   12.3850   14.7310 O   0  0  0  0  0  0  0  0  0  0  0  0
   18.6540   13.6980   12.0570 H   0  0  0  0  0  0  0  0  0  0  0  0
   17.2390   13.6860   13.6500 C   0  0  2  0  0  0  0  0  0  0  0  0
   16.3200   14.7250   12.8320 C   0  0  1  0  0  0  0  0  0  0  0  0
   16.0490   15.8350   13.9090 C   0  0  0  0  0  3  0  0  0  0  0  0
   15.0830   15.3580   15.0080 C   0  0  0  0  0  2  0  0  0  0  0  0
   17.3650   15.8650   14.6950 C   0  0  0  0  0  2  0  0  0  0  0  0
   17.2840   14.3790   15.0610 C   0  0  0  0  0  3  0  0  0  0  0  0
   15.9230   14.3400   15.7830 C   0  0  0  0  0  2  0  0  0  0  0  0
   17.0310   15.4010   11.6290 C   0  0  0  0  0  1  0  0  0  0  0  0
   15.0190   14.1320   12.2550 C   0  0  0  0  0  1  0  0  0  0  0  0
   16.6870   12.2490   13.7010 C   0  0  0  0  0  1  0  0  0  0  0  0
   20.9280   12.9320   12.7350 C   0  0  0  0  0  2  0  0  0  0  0  0
   22.1290   12.3220   13.3180 N   0  0  0  0  0  0  0  0  0  0  0  0
   22.9590   13.2150   14.1230 C   0  0  0  0  0  2  0  0  0  0  0  0
   23.0220   11.6740   12.3610 C   0  0  0  0  0  2  0  0  0  0  0  0
   24.2850   12.4660   14.2510 C   0  0  0  0  0  2  0  0  0  0  0  0
   24.2000   11.3170   13.2520 C   0  0  0  0  0  2  0  0  0  0  0  0
  1  2  1  0
  1  5  1  0
  2  3  2  0
  4  1  1  0
  5 14  1  1
 10  5  1  0
  6  5  1  0
  7  6  1  0
  7  9  1  0
  7  8  1  0
 11  8  1  1
 10  9  1  0
 10 11  1  0
  6 12  1  6
 13  6  1  0
 15 16  1  0
 15  2  1  0
 16 17  1  0
 17 19  1  0
 18 20  1  0
 18 16  1  0
 20 19  1  0
M  END
>  <vina_score>  (2) 
-5.6959999999999997

>  <pose_id>  (2) 
2

$$$$

     RDKit          3D

 20 22  0  0  1  0  0  0  0  0999 V2000
   18.6450    9.8280   18.2140 N   0  0  0  0  0  0  0  0  0  0  0  0
   19.5970    9.3010   17.3490 C   0  0  0  0  0  0  0  0  0  0  0  0
   20.6710    8.8400   17.7220 O   0  0  0  0  0  0  0  0  0  0  0  0
   17.7090    9.8560   17.8330 H   0  0  0  0  0  0  0  0  0  0  0  0
   18.7380    9.7980   19.6970 C   0  0  2  0  0  0  0  0  0  0  0  0
   17.5660   10.6760   20.3650 C   0  0  1  0  0  0  0  0  0  0  0  0
   18.3780   11.8180   21.0720 C   0  0  0  0  0  3  0  0  0  0  0  0
   19.1370   11.3130   22.3120 C   0  0  0  0  0  2  0  0  0  0  0  0
   19.5480   12.0420   20.1070 C   0  0  0  0  0  2  0  0  0  0  0  0
   20.0100   10.5830   20.1880 C   0  0  0  0  0  3  0  0  0  0  0  0
   20.2430   10.4450   21.7050 C   0  0  0  0  0  2  0  0  0  0  0  0
   16.6040   11.3430   19.3460 C   0  0  0  0  0  1  0  0  0  0  0  0
   16.6530    9.9080   21.3430 C   0  0  0  0  0  1  0  0  0  0  0  0
   18.7460    8.3160   20.1170 C   0  0  0  0  0  1  0  0  0  0  0  0
   19.1720    9.3900   15.8690 C   0  0  0  0  0  2  0  0  0  0  0  0
   18.6470   10.6910   15.4340 N   0  0  0  0  0  0  0  0  0  0  0  0
   17.7910   10.6580   14.2510 C   0  0  0  0  0  2  0  0  0  0  0  0
   19.6580   11.7150   15.1890 C   0  0  0  0  0  2  0  0  0  0  0  0
   17.7310   12.1170   13.8020 C   0  0  0  0  0  2  0  0  0  0  0  0
   18.8090   12.8340   14.6100 C   0  0  0  0  0  2  0  0  0  0  0  0
  1  5  1  0
  2  3  2  0
  2  1  1  0
  4  1  1  0
  5 14  1  1
 10  5  1  0
  5  6  1  0
  7  6  1  6
  6 13  1  1
  7  9  1  0
  7  8  1  0
 10  9  1  0
 10 11  1  0
 11  8  1  1
 12  6  1  0
 15  2  1  0
 16 15  1  0
 17 16  1  0
 18 16  1  0
 19 17  1  0
 19 20  1  0
 20 18  1  0
M  END
>  <vina_score>  (3) 
-5.5720000000000001

>  <pose_id>  (3) 
3

$$$$

     RDKit          3D

 20 22  0  0  1  0  0  0  0  0999 V2000
   19.0840   14.4470   14.5080 N   0  0  0  0  0  0  0  0  0  0  0  0
   20.0220   14.6490   13.5030 C   0  0  0  0  0  0  0  0  0  0  0  0
   19.7270   14.8260   12.3250 O   0  0  0  0  0  0  0  0  0  0  0  0
   19.4240   14.6490   15.4380 H   0  0  0  0  0  0  0  0  0  0  0  0
   17.6110   14.5380   14.3240 C   0  0  2  0  0  0  0  0  0  0  0  0
   16.8360   13.7530   15.4970 C   0  0  1  0  0  0  0  0  0  0  0  0
   16.1250   12.6010   14.7020 C   0  0  0  0  0  3  0  0  0  0  0  0
   14.9560   13.1190   13.8450 C   0  0  0  0  0  2  0  0  0  0  0  0
   17.1450   12.2740   13.6060 C   0  0  0  0  0  2  0  0  0  0  0  0
   17.1590   13.7080   13.0660 C   0  0  0  0  0  3  0  0  0  0  0  0
   15.6660   13.9000   12.7360 C   0  0  0  0  0  2  0  0  0  0  0  0
   17.7660   13.0940   16.5510 C   0  0  0  0  0  1  0  0  0  0  0  0
   15.8450   14.6100   16.3100 C   0  0  0  0  0  1  0  0  0  0  0  0
   17.2630   16.0330   14.2170 C   0  0  0  0  0  1  0  0  0  0  0  0
   21.4740   14.5910   14.0210 C   0  0  0  0  0  2  0  0  0  0  0  0
   22.3680   13.6680   13.3090 N   0  0  0  0  0  0  0  0  0  0  0  0
   23.2030   12.8240   14.1590 C   0  0  0  0  0  2  0  0  0  0  0  0
   23.2610   14.2960   12.3400 C   0  0  0  0  0  2  0  0  0  0  0  0
   24.2740   12.2920   13.2080 C   0  0  0  0  0  2  0  0  0  0  0  0
   24.1290   13.1180   11.9330 C   0  0  0  0  0  2  0  0  0  0  0  0
  1  4  1  0
  2 15  1  0
  2  1  1  0
  3  2  2  0
  5 14  1  6
  5  1  1  0
  5  6  1  0
  6 13  1  1
  6 12  1  0
  9  7  1  0
  7  6  1  1
  8  7  1  0
 10 11  1  0
 10  9  1  0
 10  5  1  1
  8 11  1  0
 16 15  1  0
 16 17  1  0
 18 16  1  0
 19 17  1  0
 20 18  1  0
 20 19  1  0
M  END
>  <vina_score>  (4) 
-5.5709999999999997

>  <pose_id>  (4) 
4

$$$$

     RDKit          3D

 20 22  0  0  1  0  0  0  0  0999 V2000
   20.8400   10.6000   18.7580 N   0  0  0  0  0  0  0  0  0  0  0  0
   21.2790   10.3600   17.4620 C   0  0  0  0  0  0  0  0  0  0  0  0
   20.5260   10.0960   16.5290 O   0  0  0  0  0  0  0  0  0  0  0  0
   21.4940   11.1180   19.3280 H   0  0  0  0  0  0  0  0  0  0  0  0
   19.4130   10.6910   19.1670 C   0  0  2  0  0  0  0  0  0  0  0  0
   19.2660   10.5880   20.7680 C   0  0  1  0  0  0  0  0  0  0  0  0
   18.4650    9.2490   20.9350 C   0  0  0  0  0  3  0  0  0  0  0  0
   16.9980    9.3880   20.4930 C   0  0  0  0  0  2  0  0  0  0  0  0
   19.0150    8.3870   19.7930 C   0  0  0  0  0  2  0  0  0  0  0  0
   18.6250    9.4060   18.7170 C   0  0  0  0  0  3  0  0  0  0  0  0
   17.1100    9.5200   18.9720 C   0  0  0  0  0  2  0  0  0  0  0  0
   20.6110   10.4310   21.5260 C   0  0  0  0  0  1  0  0  0  0  0  0
   18.5610   11.7870   21.4360 C   0  0  0  0  0  1  0  0  0  0  0  0
   18.8520   11.9870   18.5560 C   0  0  0  0  0  1  0  0  0  0  0  0
   22.8140   10.4260   17.3300 C   0  0  0  0  0  2  0  0  0  0  0  0
   23.3230   10.8160   16.0080 N   0  0  0  0  0  0  0  0  0  0  0  0
   23.6690    9.7100   15.1180 C   0  0  0  0  0  2  0  0  0  0  0  0
   24.4770   11.7100   16.0280 C   0  0  0  0  0  2  0  0  0  0  0  0
   24.5170   10.3680   14.0310 C   0  0  0  0  0  2  0  0  0  0  0  0
   24.8320   11.7660   14.5530 C   0  0  0  0  0  2  0  0  0  0  0  0
  1  5  1  0
  1  4  1  0
  2  1  1  0
  3  2  2  0
  5 14  1  6
  5  6  1  0
  7  6  1  0
  6 13  1  1
  6 12  1  0
  9  7  1  0
  8  7  1  0
 10 11  1  0
 10  5  1  1
 10  9  1  0
  8 11  1  6
 15  2  1  0
 16 18  1  0
 16 15  1  0
 17 16  1  0
 19 20  1  0
 19 17  1  0
 20 18  1  0
M  END
>  <vina_score>  (5) 
-5.5190000000000001

>  <pose_id>  (5) 
5

$$$$
