
     RDKit          3D

 24 25  0  0  0  0  0  0  0  0999 V2000
   17.1550   13.3780   15.5860 C   0  0  0  0  0  2  0  0  0  0  0  0
   17.5630   15.1100   15.4070 S   0  0  1  0  0  0  0  0  0  0  0  0
   16.8200   15.8480   16.4050 O   0  0  0  0  0  0  0  0  0  0  0  0
   19.0020   15.2300   15.3020 O   0  0  0  0  0  0  0  0  0  0  0  0
   16.9450   15.5240   13.9170 N   0  0  0  0  0  0  0  0  0  0  0  0
   17.0500   16.5080   13.6640 H   0  0  0  0  0  0  0  0  0  0  0  0
   17.0020   14.5610   12.8230 C   0  0  0  0  0  2  0  0  0  0  0  0
   17.8530   15.0830   11.6920 C   0  0  0  0  0  0  0  0  0  0  0  0
   19.2510   14.9890   11.7350 C   0  0  0  0  0  3  0  0  0  0  0  0
   17.2490   15.6970   10.5840 C   0  0  0  0  0  3  0  0  0  0  0  0
   20.0270   15.4900   10.6880 C   0  0  0  0  0  3  0  0  0  0  0  0
   18.0270   16.1960    9.5380 C   0  0  0  0  0  3  0  0  0  0  0  0
   19.4150   16.0910    9.5900 C   0  0  0  0  0  3  0  0  0  0  0  0
   18.3490   12.5110   15.9580 C   0  0  0  0  0  2  0  0  0  0  0  0
   18.9060   12.8580   17.2670 N   0  0  0  0  0  0  0  0  0  0  0  0
   19.8240   13.3060   17.1510 H   0  0  0  0  0  0  0  0  0  0  0  0
   19.0390   11.6900   18.1490 C   0  0  0  0  0  2  0  0  0  0  0  0
   19.3950   12.0330   19.6070 C   0  0  0  0  0  2  0  0  0  0  0  0
   18.3700   11.6080   20.6320 C   0  0  0  0  0  0  0  0  0  0  0  0
   18.5670   11.8970   21.9900 C   0  0  0  0  0  3  0  0  0  0  0  0
   17.2020   10.9390   20.2450 C   0  0  0  0  0  3  0  0  0  0  0  0
   17.6170   11.5190   22.9390 C   0  0  0  0  0  3  0  0  0  0  0  0
   16.2590   10.5510   21.1970 C   0  0  0  0  0  3  0  0  0  0  0  0
   16.4660   10.8410   22.5430 C   0  0  0  0  0  3  0  0  0  0  0  0
  1 14  1  0
  2  1  1  1
  2  3  2  0
  4  2  2  0
  5  2  1  0
  6  5  1  0
  7  5  1  0
  8  9  2  0
  8  7  1  0
 10  8  1  0
 11  9  1  0
 12 13  1  0
 12 10  2  0
 13 11  2  0
 14 15  1  0
 15 17  1  0
 16 15  1  0
 17 18  1  0
 18 19  1  0
 19 20  2  0
 20 22  1  0
 21 19  1  0
 21 23  2  0
 23 24  1  0
 24 22  2  0
M  RAD  8   1   3   7   3   9   2  10   2  11   2  12   2  13   2  14   3
M  RAD  7  17   3  18   3  20   2  21   2  22   2  23   2  24   2
M  END
>  <vina_score>  (1) 
-6.8220000000000001

>  <pose_id>  (1) 
1

$$$$

     RDKit          3D

 24 25  0  0  0  0  0  0  0  0999 V2000
   22.7190    8.8800   18.2740 C   0  0  0  0  0  2  0  0  0  0  0  0
   21.6880   10.1730   18.9550 S   0  0  1  0  0  0  0  0  0  0  0  0
   22.4940   10.9510   19.8690 O   0  0  0  0  0  0  0  0  0  0  0  0
   20.9680   10.8010   17.8670 O   0  0  0  0  0  0  0  0  0  0  0  0
   20.5540    9.3560   19.8610 N   0  0  0  0  0  0  0  0  0  0  0  0
   20.8110    9.1990   20.8370 H   0  0  0  0  0  0  0  0  0  0  0  0
   19.1350    9.5570   19.5870 C   0  0  0  0  0  2  0  0  0  0  0  0
   18.4350   10.1500   20.7850 C   0  0  0  0  0  0  0  0  0  0  0  0
   17.0610    9.9600   20.9890 C   0  0  0  0  0  3  0  0  0  0  0  0
   19.1560   10.9270   21.7060 C   0  0  0  0  0  3  0  0  0  0  0  0
   16.4250   10.5260   22.0950 C   0  0  0  0  0  3  0  0  0  0  0  0
   18.5180   11.4920   22.8100 C   0  0  0  0  0  3  0  0  0  0  0  0
   17.1530   11.2900   23.0060 C   0  0  0  0  0  3  0  0  0  0  0  0
   23.6000    9.3520   17.1260 C   0  0  0  0  0  2  0  0  0  0  0  0
   24.0610   10.7300   17.3050 N   0  0  0  0  0  0  0  0  0  0  0  0
   23.2560   11.3570   17.4200 H   0  0  0  0  0  0  0  0  0  0  0  0
   24.8880   11.1950   16.1830 C   0  0  0  0  0  2  0  0  0  0  0  0
   24.2690   12.3510   15.3750 C   0  0  0  0  0  2  0  0  0  0  0  0
   24.3250   12.1840   13.8750 C   0  0  0  0  0  0  0  0  0  0  0  0
   24.3560   13.3100   13.0390 C   0  0  0  0  0  3  0  0  0  0  0  0
   24.3680   10.9100   13.2950 C   0  0  0  0  0  3  0  0  0  0  0  0
   24.4220   13.1620   11.6530 C   0  0  0  0  0  3  0  0  0  0  0  0
   24.4210   10.7640   11.9080 C   0  0  0  0  0  3  0  0  0  0  0  0
   24.4490   11.8890   11.0880 C   0  0  0  0  0  3  0  0  0  0  0  0
  2  1  1  6
  2  5  1  0
  2  3  2  0
  4  2  2  0
  5  6  1  0
  7  5  1  0
  7  8  1  0
  8  9  2  0
  8 10  1  0
  9 11  1  0
 10 12  2  0
 11 13  2  0
 12 13  1  0
 14 15  1  0
 14  1  1  0
 15 16  1  0
 17 15  1  0
 18 17  1  0
 19 18  1  0
 20 19  2  0
 21 19  1  0
 22 20  1  0
 23 21  2  0
 24 22  2  0
 24 23  1  0
M  RAD  8   1   3   7   3   9   2  10   2  11   2  12   2  13   2  14   3
M  RAD  7  17   3  18   3  20   2  21   2  22   2  23   2  24   2
M  END
>  <vina_score>  (2) 
-6.4349999999999996

>  <pose_id>  (2) 
2

$$$$

     RDKit          3D

 24 25  0  0  0  0  0  0  0  0999 V2000
   18.8650   12.5870   15.0370 C   0  0  0  0  0  2  0  0  0  0  0  0
   17.6870   11.8740   13.8960 S   0  0  1  0  0  0  0  0  0  0  0  0
   18.4200   11.0710   12.9430 O   0  0  0  0  0  0  0  0  0  0  0  0
   16.5920   11.3180   14.6620 O   0  0  0  0  0  0  0  0  0  0  0  0
   17.0700   13.1840   13.0740 N   0  0  0  0  0  0  0  0  0  0  0  0
   16.0550   13.1890   12.9660 H   0  0  0  0  0  0  0  0  0  0  0  0
   17.7150   14.4860   13.2080 C   0  0  0  0  0  2  0  0  0  0  0  0
   18.0450   15.0640   11.8540 C   0  0  0  0  0  0  0  0  0  0  0  0
   19.3740   15.1770   11.4200 C   0  0  0  0  0  3  0  0  0  0  0  0
   17.0170   15.5200   11.0150 C   0  0  0  0  0  3  0  0  0  0  0  0
   19.6660   15.7260   10.1700 C   0  0  0  0  0  3  0  0  0  0  0  0
   17.3110   16.0690    9.7660 C   0  0  0  0  0  3  0  0  0  0  0  0
   18.6350   16.1700    9.3430 C   0  0  0  0  0  3  0  0  0  0  0  0
   19.6940   11.5480   15.7780 C   0  0  0  0  0  2  0  0  0  0  0  0
   19.0050   11.0190   16.9570 N   0  0  0  0  0  0  0  0  0  0  0  0
   18.0980   10.6210   16.6830 H   0  0  0  0  0  0  0  0  0  0  0  0
   18.7990   12.0410   17.9920 C   0  0  0  0  0  2  0  0  0  0  0  0
   19.4200   11.6940   19.3580 C   0  0  0  0  0  2  0  0  0  0  0  0
   18.4260   11.4250   20.4630 C   0  0  0  0  0  0  0  0  0  0  0  0
   18.7640   11.6900   21.7980 C   0  0  0  0  0  3  0  0  0  0  0  0
   17.1480   10.9280   20.1740 C   0  0  0  0  0  3  0  0  0  0  0  0
   17.8440   11.4570   22.8210 C   0  0  0  0  0  3  0  0  0  0  0  0
   16.2350   10.6830   21.2000 C   0  0  0  0  0  3  0  0  0  0  0  0
   16.5820   10.9480   22.5220 C   0  0  0  0  0  3  0  0  0  0  0  0
  1 14  1  0
  2  4  2  0
  2  1  1  1
  3  2  2  0
  5  7  1  0
  5  2  1  0
  6  5  1  0
  8  7  1  0
  9  8  2  0
 10  8  1  0
 11  9  1  0
 12 10  2  0
 13 12  1  0
 13 11  2  0
 14 15  1  0
 15 17  1  0
 16 15  1  0
 17 18  1  0
 18 19  1  0
 19 20  2  0
 20 22  1  0
 21 19  1  0
 21 23  2  0
 23 24  1  0
 24 22  2  0
M  RAD  8   1   3   7   3   9   2  10   2  11   2  12   2  13   2  14   3
M  RAD  7  17   3  18   3  20   2  21   2  22   2  23   2  24   2
M  END
>  <vina_score>  (3) 
-6.423

>  <pose_id>  (3) 
3

$$$$

     RDKit          3D

 24 25  0  0  0  0  0  0  0  0999 V2000
   18.8300   11.7920   14.7890 C   0  0  0  0  0  2  0  0  0  0  0  0
   19.1190   13.4200   14.1080 S   0  0  1  0  0  0  0  0  0  0  0  0
   19.0480   13.3190   12.6660 O   0  0  0  0  0  0  0  0  0  0  0  0
   18.3030   14.3690   14.8350 O   0  0  0  0  0  0  0  0  0  0  0  0
   20.7010   13.7550   14.5070 N   0  0  0  0  0  0  0  0  0  0  0  0
   21.2370   12.9590   14.8540 H   0  0  0  0  0  0  0  0  0  0  0  0
   21.4400   14.7530   13.7400 C   0  0  0  0  0  2  0  0  0  0  0  0
   22.4890   14.0960   12.8760 C   0  0  0  0  0  0  0  0  0  0  0  0
   22.5320   14.3210   11.4930 C   0  0  0  0  0  3  0  0  0  0  0  0
   23.4270   13.2260   13.4520 C   0  0  0  0  0  3  0  0  0  0  0  0
   23.5000   13.6960   10.7040 C   0  0  0  0  0  3  0  0  0  0  0  0
   24.3940   12.6020   12.6610 C   0  0  0  0  0  3  0  0  0  0  0  0
   24.4300   12.8390   11.2880 C   0  0  0  0  0  3  0  0  0  0  0  0
   19.4600   11.5890   16.1590 C   0  0  0  0  0  2  0  0  0  0  0  0
   19.0270   12.5980   17.1280 N   0  0  0  0  0  0  0  0  0  0  0  0
   19.5970   13.4470   17.0290 H   0  0  0  0  0  0  0  0  0  0  0  0
   19.1050   12.1150   18.5140 C   0  0  0  0  0  2  0  0  0  0  0  0
   17.9260   11.2210   18.9410 C   0  0  0  0  0  2  0  0  0  0  0  0
   17.6090   11.2430   20.4170 C   0  0  0  0  0  0  0  0  0  0  0  0
   16.3930   10.7270   20.8880 C   0  0  0  0  0  3  0  0  0  0  0  0
   18.5280   11.7590   21.3410 C   0  0  0  0  0  3  0  0  0  0  0  0
   16.1010   10.7320   22.2520 C   0  0  0  0  0  3  0  0  0  0  0  0
   18.2290   11.7740   22.7040 C   0  0  0  0  0  3  0  0  0  0  0  0
   17.0170   11.2610   23.1590 C   0  0  0  0  0  3  0  0  0  0  0  0
  1 14  1  0
  2  5  1  0
  2  1  1  1
  2  4  2  0
  3  2  2  0
  5  6  1  0
  7  5  1  0
  8 10  1  0
  8  7  1  0
  9  8  2  0
 11 13  2  0
 11  9  1  0
 12 10  2  0
 13 12  1  0
 14 15  1  0
 15 17  1  0
 16 15  1  0
 17 18  1  0
 18 19  1  0
 19 20  2  0
 19 21  1  0
 20 22  1  0
 21 23  2  0
 22 24  2  0
 23 24  1  0
M  RAD  8   1   3   7   3   9   2  10   2  11   2  12   2  13   2  14   3
M  RAD  7  17   3  18   3  20   2  21   2  22   2  23   2  24   2
M  END
>  <vina_score>  (4) 
-6.4009999999999998

>  <pose_id>  (4) 
4

$$$$

     RDKit          3D

 24 25  0  0  0  0  0  0  0  0999 V2000
   18.4050   10.7100   14.8610 C   0  0  0  0  0  2  0  0  0  0  0  0
   18.8250   10.0340   13.2600 S   0  0  1  0  0  0  0  0  0  0  0  0
   19.5190    8.7830   13.4730 O   0  0  0  0  0  0  0  0  0  0  0  0
   17.6540   10.1080   12.4130 O   0  0  0  0  0  0  0  0  0  0  0  0
   19.9280   11.1150   12.6370 N   0  0  0  0  0  0  0  0  0  0  0  0
   19.5240   11.8780   12.0910 H   0  0  0  0  0  0  0  0  0  0  0  0
   21.1370   11.4250   13.3920 C   0  0  0  0  0  2  0  0  0  0  0  0
   22.1460   12.1330   12.5220 C   0  0  0  0  0  0  0  0  0  0  0  0
   22.0230   13.5010   12.2390 C   0  0  0  0  0  3  0  0  0  0  0  0
   23.2160   11.4180   11.9620 C   0  0  0  0  0  3  0  0  0  0  0  0
   22.9570   14.1410   11.4210 C   0  0  0  0  0  3  0  0  0  0  0  0
   24.1480   12.0600   11.1450 C   0  0  0  0  0  3  0  0  0  0  0  0
   24.0190   13.4220   10.8760 C   0  0  0  0  0  3  0  0  0  0  0  0
   17.3110   11.7670   14.8030 C   0  0  0  0  0  2  0  0  0  0  0  0
   17.7380   12.9760   14.0960 N   0  0  0  0  0  0  0  0  0  0  0  0
   17.9300   13.7270   14.7700 H   0  0  0  0  0  0  0  0  0  0  0  0
   16.7430   13.4360   13.1190 C   0  0  0  0  0  2  0  0  0  0  0  0
   16.7540   14.9560   12.8700 C   0  0  0  0  0  2  0  0  0  0  0  0
   17.4890   15.3940   11.6250 C   0  0  0  0  0  0  0  0  0  0  0  0
   18.8900   15.3460   11.5780 C   0  0  0  0  0  3  0  0  0  0  0  0
   16.7890   15.8360   10.4950 C   0  0  0  0  0  3  0  0  0  0  0  0
   19.5740   15.7360   10.4260 C   0  0  0  0  0  3  0  0  0  0  0  0
   17.4750   16.2380    9.3480 C   0  0  0  0  0  3  0  0  0  0  0  0
   18.8660   16.1880    9.3140 C   0  0  0  0  0  3  0  0  0  0  0  0
  2  3  2  0
  2  1  1  1
  4  2  2  0
  5  2  1  0
  5  7  1  0
  6  5  1  0
  8  7  1  0
  9  8  2  0
 10  8  1  0
 11  9  1  0
 12 10  2  0
 13 12  1  0
 13 11  2  0
 14  1  1  0
 15 16  1  0
 15 14  1  0
 17 15  1  0
 18 17  1  0
 19 18  1  0
 20 19  2  0
 21 19  1  0
 22 20  1  0
 23 21  2  0
 24 23  1  0
 24 22  2  0
M  RAD  8   1   3   7   3   9   2  10   2  11   2  12   2  13   2  14   3
M  RAD  7  17   3  18   3  20   2  21   2  22   2  23   2  24   2
M  END
>  <vina_score>  (5) 
-6.3920000000000003

>  <pose_id>  (5) 
5

$$$$
