
     RDKit          3D

 21 22  0  0  0  0  0  0  0  0999 V2000
   20.2630   15.2320   12.8630 N   0  0  0  0  0  0  0  0  0  0  0  0
   19.1990   14.4890   12.3790 C   0  0  0  0  0  0  0  0  0  0  0  0
   19.0480   13.3000   12.6480 O   0  0  0  0  0  0  0  0  0  0  0  0
   20.4630   16.1890   12.5920 H   0  0  0  0  0  0  0  0  0  0  0  0
   21.2360   14.5430   13.6200 N   0  0  0  0  0  0  0  0  0  0  0  0
   20.7650   13.7900   14.1400 H   0  0  0  0  0  0  0  0  0  0  0  0
   22.2580   13.9940   12.7980 C   0  0  0  0  0  0  0  0  0  0  0  0
   23.4720   13.9940   10.6770 C   0  0  0  0  0  0  0  0  0  0  0  0
   24.1960   12.8720   11.0980 C   0  0  0  0  0  3  0  0  0  0  0  0
   22.4960   14.5370   11.5280 C   0  0  0  0  0  3  0  0  0  0  0  0
   23.9420   12.2990   12.3420 C   0  0  0  0  0  3  0  0  0  0  0  0
   22.9730   12.8500   13.1810 C   0  0  0  0  0  3  0  0  0  0  0  0
   23.6900   14.5830    9.3130 C   0  0  0  0  0  1  0  0  0  0  0  0
   18.2420   15.2080   11.5090 C   0  0  0  0  0  0  0  0  0  0  0  0
   18.6500   15.6280   10.2350 C   0  0  0  0  0  0  0  0  0  0  0  0
   16.9230   15.4620   11.9110 C   0  0  0  0  0  0  0  0  0  0  0  0
   17.7690   16.2690    9.3630 C   0  0  0  0  0  3  0  0  0  0  0  0
   16.0400   16.1160   11.0380 C   0  0  0  0  0  3  0  0  0  0  0  0
   16.4600   16.5130    9.7650 C   0  0  0  0  0  3  0  0  0  0  0  0
   19.9140   15.4470    9.8230 F   0  0  0  0  0  0  0  0  0  0  0  0
   16.3190   15.0910   13.4910 Cl  0  0  0  0  0  0  0  0  0  0  0  0
  1  5  1  0
  2  3  2  0
  2  1  1  0
  4  1  1  0
  5  6  1  0
  7 12  2  0
  7  5  1  0
  8  9  1  0
  8 10  2  0
  9 11  2  0
 10  7  1  0
 11 12  1  0
 13  8  1  0
 14 16  1  0
 14  2  1  0
 15 14  2  0
 16 21  1  0
 17 19  2  0
 17 15  1  0
 18 16  2  0
 19 18  1  0
 20 15  1  0
M  RAD  8   9   2  10   2  11   2  12   2  13   2  17   2  18   2  19   2
M  END
>  <vina_score>  (1) 
-7.2210000000000001

>  <pose_id>  (1) 
1

$$$$

     RDKit          3D

 21 22  0  0  0  0  0  0  0  0999 V2000
   21.0090   15.0190   11.1610 N   0  0  0  0  0  0  0  0  0  0  0  0
   22.2310   15.0920   11.8080 C   0  0  0  0  0  0  0  0  0  0  0  0
   22.6550   16.1340   12.3020 O   0  0  0  0  0  0  0  0  0  0  0  0
   20.6690   14.1990   10.6690 H   0  0  0  0  0  0  0  0  0  0  0  0
   20.2910   16.2250   11.0050 N   0  0  0  0  0  0  0  0  0  0  0  0
   20.6050   16.6760   10.1340 H   0  0  0  0  0  0  0  0  0  0  0  0
   18.8880   16.0070   10.9540 C   0  0  0  0  0  0  0  0  0  0  0  0
   16.8810   15.0150   11.9350 C   0  0  0  0  0  0  0  0  0  0  0  0
   16.1320   15.4600   10.8400 C   0  0  0  0  0  3  0  0  0  0  0  0
   18.2590   15.2810   11.9750 C   0  0  0  0  0  3  0  0  0  0  0  0
   16.7510   16.1500    9.7990 C   0  0  0  0  0  3  0  0  0  0  0  0
   18.1200   16.4120    9.8520 C   0  0  0  0  0  3  0  0  0  0  0  0
   16.2390   14.2160   13.0320 C   0  0  0  0  0  1  0  0  0  0  0  0
   23.0100   13.8360   11.8750 C   0  0  0  0  0  0  0  0  0  0  0  0
   22.9650   13.0590   13.0420 C   0  0  0  0  0  0  0  0  0  0  0  0
   23.7770   13.3810   10.7920 C   0  0  0  0  0  0  0  0  0  0  0  0
   23.6470   11.8440   13.1340 C   0  0  0  0  0  3  0  0  0  0  0  0
   24.4700   12.1640   10.8900 C   0  0  0  0  0  3  0  0  0  0  0  0
   24.4010   11.3950   12.0550 C   0  0  0  0  0  3  0  0  0  0  0  0
   22.2820   13.4740   14.1190 F   0  0  0  0  0  0  0  0  0  0  0  0
   24.0020   14.2880    9.3350 Cl  0  0  0  0  0  0  0  0  0  0  0  0
  1  2  1  0
  2 14  1  0
  2  3  2  0
  4  1  1  0
  5  1  1  0
  6  5  1  0
  7  5  1  0
  7 10  1  0
  8 10  2  0
  8 13  1  0
  9  8  1  0
 11 12  1  0
 11  9  2  0
 12  7  2  0
 14 15  2  0
 15 17  1  0
 15 20  1  0
 16 18  2  0
 16 14  1  0
 18 19  1  0
 19 17  2  0
 21 16  1  0
M  RAD  8   9   2  10   2  11   2  12   2  13   2  17   2  18   2  19   2
M  END
>  <vina_score>  (2) 
-6.7990000000000004

>  <pose_id>  (2) 
2

$$$$

     RDKit          3D

 21 22  0  0  0  0  0  0  0  0999 V2000
   21.0670   14.9870   10.9480 N   0  0  0  0  0  0  0  0  0  0  0  0
   22.2200   14.9540   11.7150 C   0  0  0  0  0  0  0  0  0  0  0  0
   22.6480   15.9430   12.3050 O   0  0  0  0  0  0  0  0  0  0  0  0
   20.7340   14.2140   10.3820 H   0  0  0  0  0  0  0  0  0  0  0  0
   20.4360   16.2410   10.7890 N   0  0  0  0  0  0  0  0  0  0  0  0
   20.8290   16.6940    9.9530 H   0  0  0  0  0  0  0  0  0  0  0  0
   19.0280   16.1140   10.6490 C   0  0  0  0  0  0  0  0  0  0  0  0
   16.8820   15.3960   11.5760 C   0  0  0  0  0  0  0  0  0  0  0  0
   16.2530   15.7470   10.3750 C   0  0  0  0  0  3  0  0  0  0  0  0
   18.2710   15.5700   11.6960 C   0  0  0  0  0  3  0  0  0  0  0  0
   16.9990   16.2540    9.3130 C   0  0  0  0  0  3  0  0  0  0  0  0
   18.3770   16.4260    9.4470 C   0  0  0  0  0  3  0  0  0  0  0  0
   16.1010   14.7900   12.7050 C   0  0  0  0  0  1  0  0  0  0  0  0
   22.9170   13.6520   11.7900 C   0  0  0  0  0  0  0  0  0  0  0  0
   23.8100   13.2880   10.7720 C   0  0  0  0  0  0  0  0  0  0  0  0
   22.7320   12.7740   12.8680 C   0  0  0  0  0  0  0  0  0  0  0  0
   24.5240   12.0910   10.8230 C   0  0  0  0  0  3  0  0  0  0  0  0
   23.4440   11.5650   12.9140 C   0  0  0  0  0  3  0  0  0  0  0  0
   24.3410   11.2260   11.8970 C   0  0  0  0  0  3  0  0  0  0  0  0
   23.9860   14.0740    9.6990 F   0  0  0  0  0  0  0  0  0  0  0  0
   21.5880   13.0490   14.1380 Cl  0  0  0  0  0  0  0  0  0  0  0  0
  1  2  1  0
  2 14  1  0
  2  3  2  0
  4  1  1  0
  5  1  1  0
  6  5  1  0
  7  5  1  0
  7 10  1  0
  8 10  2  0
  8 13  1  0
  9  8  1  0
 11 12  1  0
 11  9  2  0
 12  7  2  0
 14 16  1  0
 15 17  1  0
 15 14  2  0
 16 18  2  0
 16 21  1  0
 17 19  2  0
 19 18  1  0
 20 15  1  0
M  RAD  8   9   2  10   2  11   2  12   2  13   2  17   2  18   2  19   2
M  END
>  <vina_score>  (3) 
-6.7720000000000002

>  <pose_id>  (3) 
3

$$$$

     RDKit          3D

 21 22  0  0  0  0  0  0  0  0999 V2000
   19.9990   14.0760   13.0720 N   0  0  0  0  0  0  0  0  0  0  0  0
   21.2610   14.5770   13.3480 C   0  0  0  0  0  0  0  0  0  0  0  0
   21.4600   15.4150   14.2240 O   0  0  0  0  0  0  0  0  0  0  0  0
   19.7880   13.4500   12.3020 H   0  0  0  0  0  0  0  0  0  0  0  0
   18.9150   14.6360   13.7820 N   0  0  0  0  0  0  0  0  0  0  0  0
   19.1500   15.6130   14.0100 H   0  0  0  0  0  0  0  0  0  0  0  0
   17.7090   14.5960   13.0320 C   0  0  0  0  0  0  0  0  0  0  0  0
   16.3970   15.3820   11.1250 C   0  0  0  0  0  0  0  0  0  0  0  0
   15.3050   14.6300   11.5740 C   0  0  0  0  0  3  0  0  0  0  0  0
   17.5880   15.3690   11.8690 C   0  0  0  0  0  3  0  0  0  0  0  0
   15.3990   13.8870   12.7490 C   0  0  0  0  0  3  0  0  0  0  0  0
   16.5890   13.8800   13.4770 C   0  0  0  0  0  3  0  0  0  0  0  0
   16.2890   16.2370    9.8950 C   0  0  0  0  0  1  0  0  0  0  0  0
   22.3690   14.0450   12.5260 C   0  0  0  0  0  0  0  0  0  0  0  0
   23.2680   13.1290   13.0900 C   0  0  0  0  0  0  0  0  0  0  0  0
   22.5360   14.4100   11.1820 C   0  0  0  0  0  0  0  0  0  0  0  0
   24.3020   12.5660   12.3400 C   0  0  0  0  0  3  0  0  0  0  0  0
   23.5810   13.8510   10.4310 C   0  0  0  0  0  3  0  0  0  0  0  0
   24.4580   12.9270   11.0060 C   0  0  0  0  0  3  0  0  0  0  0  0
   23.1770   12.7830   14.3830 F   0  0  0  0  0  0  0  0  0  0  0  0
   21.5630   15.6040   10.3900 Cl  0  0  0  0  0  0  0  0  0  0  0  0
  1  2  1  0
  1  5  1  0
  2  3  2  0
  4  1  1  0
  5  6  1  0
  7 12  2  0
  7  5  1  0
  8  9  1  0
  8 10  2  0
  9 11  2  0
 10  7  1  0
 11 12  1  0
 13  8  1  0
 14 15  2  0
 14  2  1  0
 15 20  1  0
 16 14  1  0
 17 15  1  0
 18 19  1  0
 18 16  2  0
 19 17  2  0
 21 16  1  0
M  RAD  8   9   2  10   2  11   2  12   2  13   2  17   2  18   2  19   2
M  END
>  <vina_score>  (4) 
-6.7460000000000004

>  <pose_id>  (4) 
4

$$$$

     RDKit          3D

 21 22  0  0  0  0  0  0  0  0999 V2000
   19.6180   13.5840   12.6650 N   0  0  0  0  0  0  0  0  0  0  0  0
   18.9100   14.7550   12.8850 C   0  0  0  0  0  0  0  0  0  0  0  0
   18.9830   15.3810   13.9390 O   0  0  0  0  0  0  0  0  0  0  0  0
   19.5140   12.9990   11.8430 H   0  0  0  0  0  0  0  0  0  0  0  0
   20.3710   13.0760   13.7460 N   0  0  0  0  0  0  0  0  0  0  0  0
   20.0290   12.1280   13.9580 H   0  0  0  0  0  0  0  0  0  0  0  0
   21.7600   13.0300   13.4520 C   0  0  0  0  0  0  0  0  0  0  0  0
   23.5680   13.2370   11.8180 C   0  0  0  0  0  0  0  0  0  0  0  0
   24.4890   12.8490   12.7980 C   0  0  0  0  0  3  0  0  0  0  0  0
   22.2050   13.3100   12.1520 C   0  0  0  0  0  3  0  0  0  0  0  0
   24.0560   12.5310   14.0840 C   0  0  0  0  0  3  0  0  0  0  0  0
   22.7010   12.6110   14.4040 C   0  0  0  0  0  3  0  0  0  0  0  0
   24.0130   13.5210   10.4130 C   0  0  0  0  0  1  0  0  0  0  0  0
   18.0520   15.2190   11.7720 C   0  0  0  0  0  0  0  0  0  0  0  0
   16.6580   15.1790   11.9150 C   0  0  0  0  0  0  0  0  0  0  0  0
   18.5930   15.7240   10.5810 C   0  0  0  0  0  0  0  0  0  0  0  0
   15.8100   15.6480   10.9100 C   0  0  0  0  0  3  0  0  0  0  0  0
   17.7400   16.1860    9.5680 C   0  0  0  0  0  3  0  0  0  0  0  0
   16.3520   16.1540    9.7330 C   0  0  0  0  0  3  0  0  0  0  0  0
   16.0930   14.6630   13.0170 F   0  0  0  0  0  0  0  0  0  0  0  0
   20.2890   15.7360   10.2330 Cl  0  0  0  0  0  0  0  0  0  0  0  0
  1  2  1  0
  1  5  1  0
  2  3  2  0
  4  1  1  0
  5  6  1  0
  7  5  1  0
  7 12  2  0
  8 10  2  0
  8  9  1  0
  9 11  2  0
 10  7  1  0
 11 12  1  0
 13  8  1  0
 14 15  2  0
 14  2  1  0
 15 20  1  0
 16 14  1  0
 17 15  1  0
 18 19  1  0
 18 16  2  0
 19 17  2  0
 21 16  1  0
M  RAD  8   9   2  10   2  11   2  12   2  13   2  17   2  18   2  19   2
M  END
>  <vina_score>  (5) 
-6.7350000000000003

>  <pose_id>  (5) 
5

$$$$
