
     RDKit          3D

 24 25  0  0  1  0  0  0  0  0999 V2000
   19.4700   11.7590   14.7440 C   0  0  0  0  0  2  0  0  0  0  0  0
   18.7320   12.5060   13.6470 C   0  0  0  0  0  0  0  0  0  0  0  0
   19.1580   13.8030   13.4400 N   0  0  0  0  0  0  0  0  0  0  0  0
   17.7800   12.0020   13.0540 O   0  0  0  0  0  0  0  0  0  0  0  0
   20.0930   14.0130   13.7690 H   0  0  0  0  0  0  0  0  0  0  0  0
   18.6650   14.5970   12.3280 C   0  0  0  0  0  3  0  0  0  0  0  0
   17.7460   15.7040   12.8480 C   0  0  0  0  0  1  0  0  0  0  0  0
   19.8340   15.1080   11.5040 C   0  0  0  0  0  0  0  0  0  0  0  0
   21.1310   15.0390   12.0410 C   0  0  0  0  0  3  0  0  0  0  0  0
   19.6700   15.6920   10.2370 C   0  0  0  0  0  3  0  0  0  0  0  0
   22.2320   15.5030   11.3200 C   0  0  0  0  0  3  0  0  0  0  0  0
   20.7740   16.1540    9.5170 C   0  0  0  0  0  3  0  0  0  0  0  0
   22.0540   16.0540   10.0540 C   0  0  0  0  0  3  0  0  0  0  0  0
   20.6430   10.5220   14.0870 S   0  0  0  0  0  0  0  0  0  0  0  0
   22.1480   11.4690   13.9020 C   0  0  0  0  0  0  0  0  0  0  0  0
   22.7920   12.1120   14.9620 C   0  0  0  0  0  3  0  0  0  0  0  0
   22.6780   11.5950   12.6110 C   0  0  0  0  0  3  0  0  0  0  0  0
   23.9580   12.8480   14.7410 C   0  0  0  0  0  3  0  0  0  0  0  0
   23.8530   12.3290   12.3760 C   0  0  0  0  0  0  0  0  0  0  0  0
   24.4860   12.9570   13.4570 C   0  0  0  0  0  3  0  0  0  0  0  0
   24.4040   12.4680   10.9800 C   0  0  1  0  0  0  0  0  0  0  0  0
   24.9340   11.3140   10.4850 F   0  0  0  0  0  0  0  0  0  0  0  0
   23.4490   12.8490   10.0870 F   0  0  0  0  0  0  0  0  0  0  0  0
   25.3930   13.4010   10.8840 F   0  0  0  0  0  0  0  0  0  0  0  0
  2  1  1  0
  3  2  1  0
  3  5  1  0
  4  2  2  0
  6  7  1  0
  6  3  1  0
  8  9  2  0
  8  6  1  0
 10  8  1  0
 11  9  1  0
 12 13  1  0
 12 10  2  0
 13 11  2  0
 14  1  1  0
 15 14  1  0
 15 16  1  0
 17 15  2  0
 18 16  2  0
 19 17  1  0
 19 20  2  0
 20 18  1  0
 21 19  1  0
 21 22  1  6
 23 21  1  0
 24 21  1  0
M  RAD  8   1   3   6   2   7   2   9   2  10   2  11   2  12   2  13   2
M  RAD  4  16   2  17   2  18   2  20   2
M  END
>  <vina_score>  (1) 
-6.5890000000000004

>  <pose_id>  (1) 
1

$$$$

     RDKit          3D

 24 25  0  0  1  0  0  0  0  0999 V2000
   21.5710   12.5490   12.8440 C   0  0  0  0  0  2  0  0  0  0  0  0
   20.2700   11.7970   13.0670 C   0  0  0  0  0  0  0  0  0  0  0  0
   19.5750   12.1640   14.2020 N   0  0  0  0  0  0  0  0  0  0  0  0
   19.9210   10.8820   12.3230 O   0  0  0  0  0  0  0  0  0  0  0  0
   19.7960   13.0810   14.5710 H   0  0  0  0  0  0  0  0  0  0  0  0
   18.2420   11.6550   14.4740 C   0  0  0  0  0  3  0  0  0  0  0  0
   18.2600   10.8110   15.7500 C   0  0  0  0  0  1  0  0  0  0  0  0
   17.2510   12.8060   14.5150 C   0  0  0  0  0  0  0  0  0  0  0  0
   17.6120   13.9960   15.1700 C   0  0  0  0  0  3  0  0  0  0  0  0
   15.9640   12.7170   13.9610 C   0  0  0  0  0  3  0  0  0  0  0  0
   16.7300   15.0750   15.2360 C   0  0  0  0  0  3  0  0  0  0  0  0
   15.0830   13.7990   14.0270 C   0  0  0  0  0  3  0  0  0  0  0  0
   15.4680   14.9790   14.6580 C   0  0  0  0  0  3  0  0  0  0  0  0
   21.4330   14.3270   13.2420 S   0  0  0  0  0  0  0  0  0  0  0  0
   20.5520   14.9770   11.8280 C   0  0  0  0  0  0  0  0  0  0  0  0
   21.1770   15.3830   10.6470 C   0  0  0  0  0  3  0  0  0  0  0  0
   19.1620   15.1150   11.9410 C   0  0  0  0  0  3  0  0  0  0  0  0
   20.4250   15.8960    9.5870 C   0  0  0  0  0  3  0  0  0  0  0  0
   18.3930   15.6260   10.8810 C   0  0  0  0  0  0  0  0  0  0  0  0
   19.0420   16.0180    9.7030 C   0  0  0  0  0  3  0  0  0  0  0  0
   16.9010   15.7820   11.0220 C   0  0  1  0  0  0  0  0  0  0  0  0
   16.3140   16.3960    9.9560 F   0  0  0  0  0  0  0  0  0  0  0  0
   16.2700   14.5830   11.1520 F   0  0  0  0  0  0  0  0  0  0  0  0
   16.5390   16.5110   12.1160 F   0  0  0  0  0  0  0  0  0  0  0  0
  1  2  1  0
  1 14  1  0
  2  3  1  0
  3  6  1  0
  3  5  1  0
  4  2  2  0
  6  8  1  0
  6  7  1  0
  8  9  2  0
  9 11  1  0
 10 12  2  0
 10  8  1  0
 12 13  1  0
 13 11  2  0
 15 17  2  0
 15 14  1  0
 16 15  1  0
 18 20  1  0
 18 16  2  0
 19 21  1  0
 19 17  1  0
 20 19  2  0
 21 23  1  1
 21 24  1  0
 22 21  1  0
M  RAD  8   1   3   6   2   7   2   9   2  10   2  11   2  12   2  13   2
M  RAD  4  16   2  17   2  18   2  20   2
M  END
>  <vina_score>  (2) 
-6.5730000000000004

>  <pose_id>  (2) 
2

$$$$

     RDKit          3D

 24 25  0  0  1  0  0  0  0  0999 V2000
   19.6910   11.2050   14.1170 C   0  0  0  0  0  2  0  0  0  0  0  0
   20.3050   12.5760   13.8900 C   0  0  0  0  0  0  0  0  0  0  0  0
   20.0410   13.1320   12.6550 N   0  0  0  0  0  0  0  0  0  0  0  0
   21.0400   13.0970   14.7270 O   0  0  0  0  0  0  0  0  0  0  0  0
   19.2280   12.7640   12.1750 H   0  0  0  0  0  0  0  0  0  0  0  0
   20.4210   14.4990   12.3400 C   0  0  0  0  0  3  0  0  0  0  0  0
   21.8550   14.5290   11.8080 C   0  0  0  0  0  1  0  0  0  0  0  0
   19.4020   15.1090   11.3920 C   0  0  0  0  0  0  0  0  0  0  0  0
   19.8510   15.7190   10.2080 C   0  0  0  0  0  3  0  0  0  0  0  0
   18.0260   15.1300   11.6710 C   0  0  0  0  0  3  0  0  0  0  0  0
   18.9500   16.2980    9.3130 C   0  0  0  0  0  3  0  0  0  0  0  0
   17.1260   15.7090   10.7730 C   0  0  0  0  0  3  0  0  0  0  0  0
   17.5860   16.2860    9.5920 C   0  0  0  0  0  3  0  0  0  0  0  0
   18.4430   11.2040   15.4510 S   0  0  0  0  0  0  0  0  0  0  0  0
   17.1610   12.2600   14.7890 C   0  0  0  0  0  0  0  0  0  0  0  0
   16.5590   12.0590   13.5450 C   0  0  0  0  0  3  0  0  0  0  0  0
   16.7780   13.3690   15.5550 C   0  0  0  0  0  3  0  0  0  0  0  0
   15.5730   12.9350   13.0850 C   0  0  0  0  0  3  0  0  0  0  0  0
   15.7850   14.2560   15.1060 C   0  0  0  0  0  0  0  0  0  0  0  0
   15.1880   14.0270   13.8590 C   0  0  0  0  0  3  0  0  0  0  0  0
   15.3930   15.4520   15.9340 C   0  0  1  0  0  0  0  0  0  0  0  0
   16.3890   16.3720   16.0690 F   0  0  0  0  0  0  0  0  0  0  0  0
   14.3370   16.1250   15.3980 F   0  0  0  0  0  0  0  0  0  0  0  0
   15.0160   15.1250   17.2030 F   0  0  0  0  0  0  0  0  0  0  0  0
  1 14  1  0
  2  1  1  0
  2  4  2  0
  3  2  1  0
  5  3  1  0
  6  7  1  0
  6  3  1  0
  8 10  1  0
  8  6  1  0
  9  8  2  0
 11 13  2  0
 11  9  1  0
 12 10  2  0
 13 12  1  0
 15 14  1  0
 15 17  2  0
 16 15  1  0
 18 16  2  0
 18 20  1  0
 19 17  1  0
 19 21  1  0
 20 19  2  0
 21 22  1  1
 21 24  1  0
 23 21  1  0
M  RAD  8   1   3   6   2   7   2   9   2  10   2  11   2  12   2  13   2
M  RAD  4  16   2  17   2  18   2  20   2
M  END
>  <vina_score>  (3) 
-6.4210000000000003

>  <pose_id>  (3) 
3

$$$$

     RDKit          3D

 24 25  0  0  1  0  0  0  0  0999 V2000
   18.9670   12.2660   15.1810 C   0  0  0  0  0  2  0  0  0  0  0  0
   17.6740   12.6030   14.4580 C   0  0  0  0  0  0  0  0  0  0  0  0
   17.6070   13.8890   13.9600 N   0  0  0  0  0  0  0  0  0  0  0  0
   16.7420   11.8030   14.3990 O   0  0  0  0  0  0  0  0  0  0  0  0
   18.4980   14.3500   13.8200 H   0  0  0  0  0  0  0  0  0  0  0  0
   16.5090   14.3190   13.1110 C   0  0  0  0  0  3  0  0  0  0  0  0
   15.5400   15.1870   13.9150 C   0  0  0  0  0  1  0  0  0  0  0  0
   17.0580   15.0010   11.8690 C   0  0  0  0  0  0  0  0  0  0  0  0
   16.1600   15.5290   10.9260 C   0  0  0  0  0  3  0  0  0  0  0  0
   18.4340   15.0900   11.6000 C   0  0  0  0  0  3  0  0  0  0  0  0
   16.6210   16.1580    9.7690 C   0  0  0  0  0  3  0  0  0  0  0  0
   18.8930   15.7220   10.4420 C   0  0  0  0  0  3  0  0  0  0  0  0
   17.9890   16.2620    9.5310 C   0  0  0  0  0  3  0  0  0  0  0  0
   20.1610   11.3870   14.1150 S   0  0  0  0  0  0  0  0  0  0  0  0
   21.1650   12.7190   13.4710 C   0  0  0  0  0  0  0  0  0  0  0  0
   21.0490   14.0470   13.8900 C   0  0  0  0  0  3  0  0  0  0  0  0
   22.0880   12.4050   12.4650 C   0  0  0  0  0  3  0  0  0  0  0  0
   21.8570   15.0400   13.3300 C   0  0  0  0  0  3  0  0  0  0  0  0
   22.9100   13.3930   11.8970 C   0  0  0  0  0  0  0  0  0  0  0  0
   22.7810   14.7170   12.3400 C   0  0  0  0  0  3  0  0  0  0  0  0
   23.8890   13.0430   10.8060 C   0  0  1  0  0  0  0  0  0  0  0  0
   23.8150   11.7430   10.4050 F   0  0  0  0  0  0  0  0  0  0  0  0
   23.6940   13.7890    9.6830 F   0  0  0  0  0  0  0  0  0  0  0  0
   25.1880   13.2480   11.1640 F   0  0  0  0  0  0  0  0  0  0  0  0
  2  1  1  0
  3  2  1  0
  4  2  2  0
  5  3  1  0
  6  7  1  0
  6  3  1  0
  8  6  1  0
  9  8  2  0
 10  8  1  0
 11  9  1  0
 12 10  2  0
 13 11  2  0
 13 12  1  0
 14  1  1  0
 15 16  1  0
 15 14  1  0
 17 15  2  0
 18 16  2  0
 19 20  2  0
 19 17  1  0
 20 18  1  0
 21 24  1  1
 21 19  1  0
 22 21  1  0
 23 21  1  0
M  RAD  8   1   3   6   2   7   2   9   2  10   2  11   2  12   2  13   2
M  RAD  4  16   2  17   2  18   2  20   2
M  END
>  <vina_score>  (4) 
-6.3239999999999998

>  <pose_id>  (4) 
4

$$$$

     RDKit          3D

 24 25  0  0  1  0  0  0  0  0999 V2000
   20.1400   12.9400   13.0650 C   0  0  0  0  0  2  0  0  0  0  0  0
   21.2770   12.0020   12.6990 C   0  0  0  0  0  0  0  0  0  0  0  0
   22.4360   12.6300   12.2890 N   0  0  0  0  0  0  0  0  0  0  0  0
   21.1300   10.7820   12.7010 O   0  0  0  0  0  0  0  0  0  0  0  0
   22.5400   13.5930   12.5850 H   0  0  0  0  0  0  0  0  0  0  0  0
   23.6620   11.8840   12.0560 C   0  0  0  0  0  3  0  0  0  0  0  0
   24.4980   12.5850   10.9830 C   0  0  0  0  0  1  0  0  0  0  0  0
   24.3970   11.6810   13.3700 C   0  0  0  0  0  0  0  0  0  0  0  0
   24.9460   10.4190   13.6570 C   0  0  0  0  0  3  0  0  0  0  0  0
   24.5150   12.6930   14.3360 C   0  0  0  0  0  3  0  0  0  0  0  0
   25.6240   10.1870   14.8540 C   0  0  0  0  0  3  0  0  0  0  0  0
   25.1950   12.4580   15.5340 C   0  0  0  0  0  3  0  0  0  0  0  0
   25.7550   11.2090   15.7900 C   0  0  0  0  0  3  0  0  0  0  0  0
   20.3760   14.6260   12.4030 S   0  0  0  0  0  0  0  0  0  0  0  0
   18.7570   15.0220   11.7550 C   0  0  0  0  0  0  0  0  0  0  0  0
   18.5470   15.8530   10.6520 C   0  0  0  0  0  3  0  0  0  0  0  0
   17.6460   14.4930   12.4250 C   0  0  0  0  0  3  0  0  0  0  0  0
   17.2520   16.1310   10.2100 C   0  0  0  0  0  3  0  0  0  0  0  0
   16.3370   14.7610   11.9880 C   0  0  0  0  0  0  0  0  0  0  0  0
   16.1530   15.5900   10.8730 C   0  0  0  0  0  3  0  0  0  0  0  0
   15.1520   14.1960   12.7260 C   0  0  1  0  0  0  0  0  0  0  0  0
   14.8370   14.8840   13.8600 F   0  0  0  0  0  0  0  0  0  0  0  0
   14.0230   14.2010   11.9650 F   0  0  0  0  0  0  0  0  0  0  0  0
   15.3290   12.9010   13.1160 F   0  0  0  0  0  0  0  0  0  0  0  0
  2  4  2  0
  2  1  1  0
  3  5  1  0
  3  2  1  0
  6  7  1  0
  6  3  1  0
  6  8  1  0
  8  9  2  0
  8 10  1  0
  9 11  1  0
 10 12  2  0
 11 13  2  0
 12 13  1  0
 14  1  1  0
 15 14  1  0
 15 17  2  0
 16 15  1  0
 18 16  2  0
 18 20  1  0
 19 17  1  0
 19 21  1  0
 20 19  2  0
 21 24  1  1
 21 22  1  0
 23 21  1  0
M  RAD  8   1   3   6   2   7   2   9   2  10   2  11   2  12   2  13   2
M  RAD  4  16   2  17   2  18   2  20   2
M  END
>  <vina_score>  (5) 
-6.2439999999999998

>  <pose_id>  (5) 
5

$$$$
