
     RDKit          3D

 22 24  0  0  0  0  0  0  0  0999 V2000
   18.5210   12.3330   13.9580 C   0  0  0  0  0  2  0  0  0  0  0  0
   18.3440   13.8570   14.0830 C   0  0  0  0  0  2  0  0  0  0  0  0
   17.6280   14.4820   12.9200 C   0  0  0  0  0  0  0  0  0  0  0  0
   19.8740   15.8640   10.1260 C   0  0  0  0  0  0  0  0  0  0  0  0
   18.8230   16.3010    9.3130 C   0  0  0  0  0  3  0  0  0  0  0  0
   19.5890   15.2310   11.3480 C   0  0  0  0  0  3  0  0  0  0  0  0
   17.4880   16.1460    9.7010 C   0  0  0  0  0  3  0  0  0  0  0  0
   18.2500   15.0630   11.7640 C   0  0  0  0  0  0  0  0  0  0  0  0
   17.2360   15.5260   10.9300 C   0  0  0  0  0  0  0  0  0  0  0  0
   16.0440   15.2440   11.5510 N   0  0  0  0  0  0  0  0  0  0  0  0
   16.2580   14.6250   12.7570 C   0  0  0  0  0  0  0  0  0  0  0  0
   21.2960   16.0120    9.6710 C   0  0  0  0  0  1  0  0  0  0  0  0
   15.1370   15.4640   11.1650 H   0  0  0  0  0  0  0  0  0  0  0  0
   15.1250   14.2110   13.6230 C   0  0  0  0  0  1  0  0  0  0  0  0
   19.5480   11.8740   13.0120 N   0  0  0  0  0  0  0  0  0  0  0  0
   19.6100   12.5440   12.2470 H   0  0  0  0  0  0  0  0  0  0  0  0
   20.8790   11.7180   13.6040 C   0  0  0  0  0  2  0  0  0  0  0  0
   21.9650   12.2740   12.7510 C   0  0  0  0  0  0  0  0  0  0  0  0
   22.4960   13.5380   12.5940 C   0  0  0  0  0  3  0  0  0  0  0  0
   22.6070   11.3950   11.9260 O   0  0  0  0  0  0  0  0  0  0  0  0
   23.5200   13.4240   11.6240 C   0  0  0  0  0  3  0  0  0  0  0  0
   23.5480   12.1020   11.2480 C   0  0  0  0  0  3  0  0  0  0  0  0
  1  2  1  0
  3  2  1  0
  4  6  1  0
  5  7  1  0
  5  4  2  0
  6  8  2  0
  7  9  2  0
  8  3  1  0
  9 10  1  0
  9  8  1  0
 10 11  1  0
 11  3  2  0
 11 14  1  0
 12  4  1  0
 13 10  1  0
 15 17  1  0
 15  1  1  0
 16 15  1  0
 18 17  1  0
 19 18  2  0
 20 18  1  0
 21 19  1  0
 22 21  2  0
 22 20  1  0
M  END
>  <vina_score>  (1) 
-6.6539999999999999

>  <pose_id>  (1) 
1

$$$$

     RDKit          3D

 22 24  0  0  0  0  0  0  0  0999 V2000
   20.0170   12.3310   13.6950 C   0  0  0  0  0  2  0  0  0  0  0  0
   20.2300   13.8530   13.7550 C   0  0  0  0  0  2  0  0  0  0  0  0
   20.5410   14.4770   12.4250 C   0  0  0  0  0  0  0  0  0  0  0  0
   17.5160   15.7630   10.4370 C   0  0  0  0  0  0  0  0  0  0  0  0
   18.2600   16.2390    9.3530 C   0  0  0  0  0  3  0  0  0  0  0  0
   18.1770   15.1670   11.5250 C   0  0  0  0  0  3  0  0  0  0  0  0
   19.6520   16.1130    9.3130 C   0  0  0  0  0  3  0  0  0  0  0  0
   19.5820   15.0270   11.5100 C   0  0  0  0  0  0  0  0  0  0  0  0
   20.2810   15.5020   10.4040 C   0  0  0  0  0  0  0  0  0  0  0  0
   21.6130   15.2520   10.6310 N   0  0  0  0  0  0  0  0  0  0  0  0
   21.7900   14.6250   11.8400 C   0  0  0  0  0  0  0  0  0  0  0  0
   16.0260   15.9400   10.4700 C   0  0  0  0  0  1  0  0  0  0  0  0
   22.3540   15.5000    9.9930 H   0  0  0  0  0  0  0  0  0  0  0  0
   23.1430   14.2500   12.3210 C   0  0  0  0  0  1  0  0  0  0  0  0
   18.7740   11.8740   13.0530 N   0  0  0  0  0  0  0  0  0  0  0  0
   18.9610   10.9980   12.5680 H   0  0  0  0  0  0  0  0  0  0  0  0
   17.6640   11.6630   13.9860 C   0  0  0  0  0  2  0  0  0  0  0  0
   16.6990   12.7960   14.0080 C   0  0  0  0  0  0  0  0  0  0  0  0
   15.5990   13.1200   13.2410 C   0  0  0  0  0  3  0  0  0  0  0  0
   16.8940   13.7500   14.9660 O   0  0  0  0  0  0  0  0  0  0  0  0
   15.0920   14.3350   13.7620 C   0  0  0  0  0  3  0  0  0  0  0  0
   15.9140   14.6760   14.8090 C   0  0  0  0  0  3  0  0  0  0  0  0
  1  2  1  0
  3  2  1  0
  4 12  1  0
  4  6  1  0
  5  4  2  0
  7  5  1  0
  7  9  2  0
  8  6  2  0
  8  3  1  0
  9 10  1  0
  9  8  1  0
 10 11  1  0
 11 14  1  0
 11  3  2  0
 13 10  1  0
 15  1  1  0
 15 17  1  0
 16 15  1  0
 17 18  1  0
 18 20  1  0
 19 21  1  0
 19 18  2  0
 21 22  2  0
 22 20  1  0
M  END
>  <vina_score>  (2) 
-6.5300000000000002

>  <pose_id>  (2) 
2

$$$$

     RDKit          3D

 22 24  0  0  0  0  0  0  0  0999 V2000
   19.9250   11.0810   20.2280 C   0  0  0  0  0  2  0  0  0  0  0  0
   19.4920   11.2130   21.6980 C   0  0  0  0  0  2  0  0  0  0  0  0
   18.0440   10.8970   21.9370 C   0  0  0  0  0  0  0  0  0  0  0  0
   16.5210    8.2180   19.6410 C   0  0  0  0  0  0  0  0  0  0  0  0
   15.2480    8.2560   20.2170 C   0  0  0  0  0  3  0  0  0  0  0  0
   17.5370    9.0490   20.1450 C   0  0  0  0  0  3  0  0  0  0  0  0
   14.9500    9.1240   21.2730 C   0  0  0  0  0  3  0  0  0  0  0  0
   17.2630    9.9360   21.2100 C   0  0  0  0  0  0  0  0  0  0  0  0
   15.9770    9.9510   21.7430 C   0  0  0  0  0  0  0  0  0  0  0  0
   15.9700   10.8830   22.7530 N   0  0  0  0  0  0  0  0  0  0  0  0
   17.2030   11.4720   22.8780 C   0  0  0  0  0  0  0  0  0  0  0  0
   16.8240    7.2530   18.5330 C   0  0  0  0  0  1  0  0  0  0  0  0
   15.1640   11.0980   23.3210 H   0  0  0  0  0  0  0  0  0  0  0  0
   17.4580   12.5140   23.9050 C   0  0  0  0  0  1  0  0  0  0  0  0
   19.6640   12.2450   19.3670 N   0  0  0  0  0  0  0  0  0  0  0  0
   20.4960   12.8320   19.3530 H   0  0  0  0  0  0  0  0  0  0  0  0
   19.3120   11.9010   17.9870 C   0  0  0  0  0  2  0  0  0  0  0  0
   17.9340   12.3220   17.6150 C   0  0  0  0  0  0  0  0  0  0  0  0
   16.6780   11.8710   17.9630 C   0  0  0  0  0  3  0  0  0  0  0  0
   17.8270   13.3710   16.7470 O   0  0  0  0  0  0  0  0  0  0  0  0
   15.7530   12.6910   17.2740 C   0  0  0  0  0  3  0  0  0  0  0  0
   16.5010   13.5870   16.5480 C   0  0  0  0  0  3  0  0  0  0  0  0
  1  2  1  0
  2  3  1  0
  3 11  2  0
  4  6  2  0
  4  5  1  0
  5  7  2  0
  6  8  1  0
  7  9  1  0
  8  9  2  0
  8  3  1  0
  9 10  1  0
 10 11  1  0
 10 13  1  0
 11 14  1  0
 12  4  1  0
 15  1  1  0
 16 15  1  0
 17 15  1  0
 18 19  2  0
 18 17  1  0
 20 18  1  0
 21 19  1  0
 22 20  1  0
 22 21  2  0
M  END
>  <vina_score>  (3) 
-6.3310000000000004

>  <pose_id>  (3) 
3

$$$$

     RDKit          3D

 22 24  0  0  0  0  0  0  0  0999 V2000
   19.5750   12.1170   20.3020 C   0  0  0  0  0  2  0  0  0  0  0  0
   19.4260   11.2360   21.5550 C   0  0  0  0  0  2  0  0  0  0  0  0
   18.0030   10.8840   21.8850 C   0  0  0  0  0  0  0  0  0  0  0  0
   16.3950    8.1890   19.6690 C   0  0  0  0  0  0  0  0  0  0  0  0
   15.1610    8.1920   20.3270 C   0  0  0  0  0  3  0  0  0  0  0  0
   17.4220    9.0390   20.1130 C   0  0  0  0  0  3  0  0  0  0  0  0
   14.9140    9.0460   21.4080 C   0  0  0  0  0  3  0  0  0  0  0  0
   17.1980    9.9110   21.2010 C   0  0  0  0  0  0  0  0  0  0  0  0
   15.9500    9.8920   21.8180 C   0  0  0  0  0  0  0  0  0  0  0  0
   15.9880   10.8150   22.8340 N   0  0  0  0  0  0  0  0  0  0  0  0
   17.2140   11.4330   22.8840 C   0  0  0  0  0  0  0  0  0  0  0  0
   16.6460    7.2400   18.5340 C   0  0  0  0  0  1  0  0  0  0  0  0
   15.2160   11.0080   23.4560 H   0  0  0  0  0  0  0  0  0  0  0  0
   17.5110   12.4720   23.9010 C   0  0  0  0  0  1  0  0  0  0  0  0
   20.3810   11.5560   19.2070 N   0  0  0  0  0  0  0  0  0  0  0  0
   20.7230   12.3220   18.6300 H   0  0  0  0  0  0  0  0  0  0  0  0
   21.5270   10.7610   19.6550 C   0  0  0  0  0  2  0  0  0  0  0  0
   22.3070   10.1790   18.5290 C   0  0  0  0  0  0  0  0  0  0  0  0
   22.3800   10.4590   17.1800 C   0  0  0  0  0  3  0  0  0  0  0  0
   23.1450    9.1450   18.8340 O   0  0  0  0  0  0  0  0  0  0  0  0
   23.3150    9.5490   16.6320 C   0  0  0  0  0  3  0  0  0  0  0  0
   23.7520    8.7710   17.6780 C   0  0  0  0  0  3  0  0  0  0  0  0
  1  2  1  0
  2  3  1  0
  3 11  2  0
  4  6  2  0
  4  5  1  0
  5  7  2  0
  6  8  1  0
  7  9  1  0
  8  9  2  0
  8  3  1  0
  9 10  1  0
 10 11  1  0
 10 13  1  0
 11 14  1  0
 12  4  1  0
 15 17  1  0
 15  1  1  0
 16 15  1  0
 18 20  1  0
 18 17  1  0
 19 18  2  0
 21 19  1  0
 21 22  2  0
 22 20  1  0
M  END
>  <vina_score>  (4) 
-6.1699999999999999

>  <pose_id>  (4) 
4

$$$$

     RDKit          3D

 22 24  0  0  0  0  0  0  0  0999 V2000
   20.8030   13.1460   12.6820 C   0  0  0  0  0  2  0  0  0  0  0  0
   20.7560   14.6800   12.5780 C   0  0  0  0  0  2  0  0  0  0  0  0
   19.8120   15.1900   11.5280 C   0  0  0  0  0  0  0  0  0  0  0  0
   16.0720   14.7810   12.3060 C   0  0  0  0  0  0  0  0  0  0  0  0
   15.6230   15.3770   11.1230 C   0  0  0  0  0  3  0  0  0  0  0  0
   17.4520   14.6770   12.5510 C   0  0  0  0  0  3  0  0  0  0  0  0
   16.5190   15.8530   10.1600 C   0  0  0  0  0  3  0  0  0  0  0  0
   18.3780   15.1490   11.5950 C   0  0  0  0  0  0  0  0  0  0  0  0
   17.8870   15.7220   10.4250 C   0  0  0  0  0  0  0  0  0  0  0  0
   18.9740   16.0970    9.6730 N   0  0  0  0  0  0  0  0  0  0  0  0
   20.1440   15.7750   10.3150 C   0  0  0  0  0  0  0  0  0  0  0  0
   15.0900   14.3100   13.3380 C   0  0  0  0  0  1  0  0  0  0  0  0
   18.9120   16.5480    8.7720 H   0  0  0  0  0  0  0  0  0  0  0  0
   21.4640   16.0820    9.7090 C   0  0  0  0  0  1  0  0  0  0  0  0
   21.4260   12.5950   13.8950 N   0  0  0  0  0  0  0  0  0  0  0  0
   21.2890   11.5860   13.9010 H   0  0  0  0  0  0  0  0  0  0  0  0
   22.8590   12.8730   14.0090 C   0  0  0  0  0  2  0  0  0  0  0  0
   23.6010   12.6350   12.7410 C   0  0  0  0  0  0  0  0  0  0  0  0
   24.2100   13.4710   11.8270 C   0  0  0  0  0  3  0  0  0  0  0  0
   23.7410   11.3350   12.3460 O   0  0  0  0  0  0  0  0  0  0  0  0
   24.7530   12.6360   10.8210 C   0  0  0  0  0  3  0  0  0  0  0  0
   24.4410   11.3470   11.1830 C   0  0  0  0  0  3  0  0  0  0  0  0
  1 15  1  0
  2  1  1  0
  3  8  1  0
  3  2  1  0
  4  6  1  0
  4 12  1  0
  5  4  2  0
  7  9  2  0
  7  5  1  0
  8  6  2  0
  9  8  1  0
 10 11  1  0
 10  9  1  0
 11  3  2  0
 13 10  1  0
 14 11  1  0
 15 16  1  0
 15 17  1  0
 18 17  1  0
 19 18  2  0
 20 18  1  0
 21 22  2  0
 21 19  1  0
 22 20  1  0
M  END
>  <vina_score>  (5) 
-6.1580000000000004

>  <pose_id>  (5) 
5

$$$$
