
     RDKit          3D

 24 25  0  0  0  0  0  0  0  0999 V2000
   17.1190   13.9310   15.1020 N   0  0  0  0  0  0  0  0  0  0  0  0
   17.8750   14.8310   14.3020 C   0  0  0  0  0  0  0  0  0  0  0  0
   17.9380   14.3610   12.9920 N   0  0  0  0  0  0  0  0  0  0  0  0
   18.6570   16.1860   14.9080 S   0  0  0  0  0  0  0  0  0  0  0  0
   17.8250   13.3560   12.9620 H   0  0  0  0  0  0  0  0  0  0  0  0
   18.3520   14.9630   11.7830 C   0  0  0  0  0  0  0  0  0  0  0  0
   20.0920   15.7430   10.2500 C   0  0  0  0  0  0  0  0  0  0  0  0
   19.1130   16.2410    9.3930 C   0  0  0  0  0  3  0  0  0  0  0  0
   19.7020   15.1050   11.4370 C   0  0  0  0  0  3  0  0  0  0  0  0
   17.7660   16.1360    9.7340 C   0  0  0  0  0  3  0  0  0  0  0  0
   17.3700   15.5100   10.9280 C   0  0  0  0  0  0  0  0  0  0  0  0
   21.5460   15.8420    9.8900 C   0  0  0  0  0  1  0  0  0  0  0  0
   15.8980   15.4300   11.2360 C   0  0  0  0  0  1  0  0  0  0  0  0
   17.7040   13.2830   16.2990 C   0  0  0  0  0  2  0  0  0  0  0  0
   17.7300   11.7440   16.2350 C   0  0  0  0  0  2  0  0  0  0  0  0
   18.3120   11.2030   14.9520 C   0  0  0  0  0  0  0  0  0  0  0  0
   17.5680   10.3640   14.1200 C   0  0  0  0  0  3  0  0  0  0  0  0
   19.6090   11.5500   14.5590 C   0  0  0  0  0  3  0  0  0  0  0  0
   18.1450    9.9200   12.9380 C   0  0  0  0  0  3  0  0  0  0  0  0
   20.0970   11.0530   13.3610 C   0  0  0  0  0  3  0  0  0  0  0  0
   19.3910   10.2510   12.5370 N   0  0  0  0  0  0  0  0  0  0  0  0
   15.6350   13.9730   15.0070 C   0  0  0  0  0  3  0  0  0  0  0  0
   15.1140   13.1170   13.8500 C   0  0  0  0  0  1  0  0  0  0  0  0
   15.1030   15.4040   14.9360 C   0  0  0  0  0  1  0  0  0  0  0  0
  1 14  1  0
  2  4  2  0
  2  1  1  0
  3  2  1  0
  5  3  1  0
  6  3  1  0
  7  9  2  0
  8 10  2  0
  8  7  1  0
  9  6  1  0
 10 11  1  0
 11 13  1  0
 11  6  2  0
 12  7  1  0
 15 14  1  0
 16 15  1  0
 17 16  1  0
 18 16  2  0
 19 17  2  0
 20 18  1  0
 21 19  1  0
 21 20  2  0
 22  1  1  0
 23 22  1  0
 24 22  1  0
M  RAD  8   8   2   9   2  10   2  12   2  13   2  14   3  15   3  17   2
M  RAD  6  18   2  19   2  20   2  22   2  23   2  24   2
M  END
>  <vina_score>  (1) 
-6.5439999999999996

>  <pose_id>  (1) 
1

$$$$

     RDKit          3D

 24 25  0  0  0  0  0  0  0  0999 V2000
   17.2840   13.7660   15.0510 N   0  0  0  0  0  0  0  0  0  0  0  0
   17.9470   14.7500   14.2670 C   0  0  0  0  0  0  0  0  0  0  0  0
   18.0870   14.2970   12.9580 N   0  0  0  0  0  0  0  0  0  0  0  0
   18.5570   16.1820   14.8930 S   0  0  0  0  0  0  0  0  0  0  0  0
   18.0900   13.2860   12.9230 H   0  0  0  0  0  0  0  0  0  0  0  0
   18.4510   14.9490   11.7580 C   0  0  0  0  0  0  0  0  0  0  0  0
   20.1270   15.8100   10.1980 C   0  0  0  0  0  0  0  0  0  0  0  0
   19.1130   16.3230    9.3930 C   0  0  0  0  0  3  0  0  0  0  0  0
   19.7860   15.1240   11.3740 C   0  0  0  0  0  3  0  0  0  0  0  0
   17.7800   16.1860    9.7750 C   0  0  0  0  0  3  0  0  0  0  0  0
   17.4330   15.5110   10.9580 C   0  0  0  0  0  0  0  0  0  0  0  0
   21.5660   15.9430    9.7930 C   0  0  0  0  0  1  0  0  0  0  0  0
   15.9740   15.3980   11.3120 C   0  0  0  0  0  1  0  0  0  0  0  0
   17.9630   13.0940   16.1830 C   0  0  0  0  0  2  0  0  0  0  0  0
   17.0290   12.2440   17.0650 C   0  0  0  0  0  2  0  0  0  0  0  0
   17.6350   11.8620   18.3940 C   0  0  0  0  0  0  0  0  0  0  0  0
   18.9910   12.0690   18.6550 C   0  0  0  0  0  3  0  0  0  0  0  0
   16.8410   11.3080   19.4030 C   0  0  0  0  0  3  0  0  0  0  0  0
   19.4870   11.7250   19.9040 C   0  0  0  0  0  3  0  0  0  0  0  0
   17.4300   10.9950   20.6180 C   0  0  0  0  0  3  0  0  0  0  0  0
   18.7360   11.1980   20.8940 N   0  0  0  0  0  0  0  0  0  0  0  0
   15.7970   13.7220   15.0260 C   0  0  0  0  0  3  0  0  0  0  0  0
   15.2730   12.8350   13.8930 C   0  0  0  0  0  1  0  0  0  0  0  0
   15.1810   15.1190   14.9800 C   0  0  0  0  0  1  0  0  0  0  0  0
  1 14  1  0
  2  4  2  0
  2  1  1  0
  3  2  1  0
  5  3  1  0
  6  3  1  0
  7  9  2  0
  8 10  2  0
  8  7  1  0
  9  6  1  0
 10 11  1  0
 11 13  1  0
 11  6  2  0
 12  7  1  0
 14 15  1  0
 15 16  1  0
 16 17  1  0
 16 18  2  0
 17 19  2  0
 18 20  1  0
 19 21  1  0
 20 21  2  0
 22  1  1  0
 23 22  1  0
 24 22  1  0
M  RAD  8   8   2   9   2  10   2  12   2  13   2  14   3  15   3  17   2
M  RAD  6  18   2  19   2  20   2  22   2  23   2  24   2
M  END
>  <vina_score>  (2) 
-6.4569999999999999

>  <pose_id>  (2) 
2

$$$$

     RDKit          3D

 24 25  0  0  0  0  0  0  0  0999 V2000
   18.9570   11.7150   15.3680 N   0  0  0  0  0  0  0  0  0  0  0  0
   18.9340   10.9230   16.5490 C   0  0  0  0  0  0  0  0  0  0  0  0
   19.7020   11.5280   17.5410 N   0  0  0  0  0  0  0  0  0  0  0  0
   18.1780    9.4280   16.6520 S   0  0  0  0  0  0  0  0  0  0  0  0
   20.4130   12.1230   17.1360 H   0  0  0  0  0  0  0  0  0  0  0  0
   19.8240   11.2900   18.9280 C   0  0  0  0  0  0  0  0  0  0  0  0
   18.9830   11.4400   21.2210 C   0  0  0  0  0  0  0  0  0  0  0  0
   20.1590   10.8580   21.6900 C   0  0  0  0  0  3  0  0  0  0  0  0
   18.8250   11.6480   19.8420 C   0  0  0  0  0  3  0  0  0  0  0  0
   21.1770   10.5240   20.7990 C   0  0  0  0  0  3  0  0  0  0  0  0
   21.0290   10.7420   19.4180 C   0  0  0  0  0  0  0  0  0  0  0  0
   17.8750   11.7960   22.1690 C   0  0  0  0  0  1  0  0  0  0  0  0
   22.1680   10.3570   18.5110 C   0  0  0  0  0  1  0  0  0  0  0  0
   18.1810   12.9730   15.2660 C   0  0  0  0  0  2  0  0  0  0  0  0
   16.7820   12.8030   14.6440 C   0  0  0  0  0  2  0  0  0  0  0  0
   16.5530   13.6670   13.4280 C   0  0  0  0  0  0  0  0  0  0  0  0
   15.2880   13.7760   12.8470 C   0  0  0  0  0  3  0  0  0  0  0  0
   17.6070   14.3970   12.8680 C   0  0  0  0  0  3  0  0  0  0  0  0
   15.1310   14.6080   11.7480 C   0  0  0  0  0  3  0  0  0  0  0  0
   17.3510   15.1990   11.7680 C   0  0  0  0  0  3  0  0  0  0  0  0
   16.1330   15.3270   11.1990 N   0  0  0  0  0  0  0  0  0  0  0  0
   20.0810   11.5290   14.4120 C   0  0  0  0  0  3  0  0  0  0  0  0
   20.8170   12.8430   14.1340 C   0  0  0  0  0  1  0  0  0  0  0  0
   19.6310   10.8500   13.1200 C   0  0  0  0  0  1  0  0  0  0  0  0
  1  2  1  0
  2  4  2  0
  2  3  1  0
  3  6  1  0
  5  3  1  0
  6 11  2  0
  6  9  1  0
  7  8  1  0
  7 12  1  0
  9  7  2  0
 10  8  2  0
 11 10  1  0
 13 11  1  0
 14  1  1  0
 15 14  1  0
 16 15  1  0
 17 16  1  0
 18 16  2  0
 19 17  2  0
 20 18  1  0
 21 19  1  0
 21 20  2  0
 22  1  1  0
 23 22  1  0
 24 22  1  0
M  RAD  8   8   2   9   2  10   2  12   2  13   2  14   3  15   3  17   2
M  RAD  6  18   2  19   2  20   2  22   2  23   2  24   2
M  END
>  <vina_score>  (3) 
-6.1619999999999999

>  <pose_id>  (3) 
3

$$$$

     RDKit          3D

 24 25  0  0  0  0  0  0  0  0999 V2000
   21.8650   13.4390   13.1330 N   0  0  0  0  0  0  0  0  0  0  0  0
   20.7310   14.2690   13.3520 C   0  0  0  0  0  0  0  0  0  0  0  0
   19.8420   14.1470   12.2870 N   0  0  0  0  0  0  0  0  0  0  0  0
   20.5810   15.3150   14.6560 S   0  0  0  0  0  0  0  0  0  0  0  0
   20.3240   13.8640   11.4440 H   0  0  0  0  0  0  0  0  0  0  0  0
   18.5020   14.5580   12.1140 C   0  0  0  0  0  0  0  0  0  0  0  0
   16.1340   14.4960   12.7280 C   0  0  0  0  0  0  0  0  0  0  0  0
   15.8380   15.3550   11.6710 C   0  0  0  0  0  3  0  0  0  0  0  0
   17.4650   14.1080   12.9410 C   0  0  0  0  0  3  0  0  0  0  0  0
   16.8520   15.7890   10.8180 C   0  0  0  0  0  3  0  0  0  0  0  0
   18.1850   15.3930   11.0200 C   0  0  0  0  0  0  0  0  0  0  0  0
   15.0530   14.0290   13.6580 C   0  0  0  0  0  1  0  0  0  0  0  0
   19.2310   15.8990   10.0620 C   0  0  0  0  0  1  0  0  0  0  0  0
   21.7350   11.9690   13.0110 C   0  0  0  0  0  2  0  0  0  0  0  0
   21.2610   11.2680   14.2980 C   0  0  0  0  0  2  0  0  0  0  0  0
   19.7630   11.0970   14.3760 C   0  0  0  0  0  0  0  0  0  0  0  0
   19.0410   11.5530   15.4800 C   0  0  0  0  0  3  0  0  0  0  0  0
   19.0640   10.4900   13.3280 C   0  0  0  0  0  3  0  0  0  0  0  0
   17.6620   11.3940   15.4840 C   0  0  0  0  0  3  0  0  0  0  0  0
   17.6860   10.3750   13.4260 C   0  0  0  0  0  3  0  0  0  0  0  0
   16.9680   10.8200   14.4790 N   0  0  0  0  0  0  0  0  0  0  0  0
   23.1040   14.0610   12.5930 C   0  0  0  0  0  3  0  0  0  0  0  0
   22.8970   14.6060   11.1760 C   0  0  0  0  0  1  0  0  0  0  0  0
   24.3010   13.1150   12.6640 C   0  0  0  0  0  1  0  0  0  0  0  0
  1  2  1  0
  2  4  2  0
  3  2  1  0
  5  3  1  0
  6  3  1  0
  6  9  1  0
  7  9  2  0
  7 12  1  0
  8  7  1  0
 10 11  1  0
 10  8  2  0
 11  6  2  0
 13 11  1  0
 14  1  1  0
 14 15  1  0
 15 16  1  0
 16 17  1  0
 17 19  2  0
 18 20  1  0
 18 16  2  0
 20 21  2  0
 21 19  1  0
 22 24  1  0
 22  1  1  0
 23 22  1  0
M  RAD  8   8   2   9   2  10   2  12   2  13   2  14   3  15   3  17   2
M  RAD  6  18   2  19   2  20   2  22   2  23   2  24   2
M  END
>  <vina_score>  (4) 
-6.077

>  <pose_id>  (4) 
4

$$$$

     RDKit          3D

 24 25  0  0  0  0  0  0  0  0999 V2000
   20.9080   10.3340   16.6400 N   0  0  0  0  0  0  0  0  0  0  0  0
   21.0590   10.7560   15.2900 C   0  0  0  0  0  0  0  0  0  0  0  0
   21.7250   11.9790   15.2480 N   0  0  0  0  0  0  0  0  0  0  0  0
   20.4110    9.9340   13.9790 S   0  0  0  0  0  0  0  0  0  0  0  0
   21.5950   12.4920   16.1100 H   0  0  0  0  0  0  0  0  0  0  0  0
   22.3170   12.7050   14.1910 C   0  0  0  0  0  0  0  0  0  0  0  0
   22.1720   14.1790   12.2440 C   0  0  0  0  0  0  0  0  0  0  0  0
   23.5480   14.0670   12.0570 C   0  0  0  0  0  3  0  0  0  0  0  0
   21.5690   13.4980   13.3120 C   0  0  0  0  0  3  0  0  0  0  0  0
   24.3050   13.2570   12.9020 C   0  0  0  0  0  3  0  0  0  0  0  0
   23.7040   12.5630   13.9660 C   0  0  0  0  0  0  0  0  0  0  0  0
   21.3470   15.0540   11.3460 C   0  0  0  0  0  1  0  0  0  0  0  0
   24.5800   11.7060   14.8420 C   0  0  0  0  0  1  0  0  0  0  0  0
   19.5940   10.3790   17.3220 C   0  0  0  0  0  2  0  0  0  0  0  0
   19.3350   11.6760   18.1100 C   0  0  0  0  0  2  0  0  0  0  0  0
   19.2060   11.4630   19.5990 C   0  0  0  0  0  0  0  0  0  0  0  0
   17.9830   11.6370   20.2490 C   0  0  0  0  0  3  0  0  0  0  0  0
   20.3120   11.0650   20.3560 C   0  0  0  0  0  3  0  0  0  0  0  0
   17.9180   11.3990   21.6150 C   0  0  0  0  0  3  0  0  0  0  0  0
   20.1470   10.8540   21.7160 C   0  0  0  0  0  3  0  0  0  0  0  0
   18.9710   11.0060   22.3620 N   0  0  0  0  0  0  0  0  0  0  0  0
   21.9500    9.4470   17.2250 C   0  0  0  0  0  3  0  0  0  0  0  0
   21.3330    8.2640   17.9770 C   0  0  0  0  0  1  0  0  0  0  0  0
   22.9370   10.2180   18.0980 C   0  0  0  0  0  1  0  0  0  0  0  0
  1 22  1  0
  1 14  1  0
  2  1  1  0
  3  2  1  0
  3  5  1  0
  4  2  2  0
  6  3  1  0
  7  9  2  0
  8  7  1  0
  8 10  2  0
  9  6  1  0
 10 11  1  0
 11  6  2  0
 11 13  1  0
 12  7  1  0
 14 15  1  0
 15 16  1  0
 16 17  1  0
 16 18  2  0
 17 19  2  0
 18 20  1  0
 19 21  1  0
 20 21  2  0
 22 23  1  0
 22 24  1  0
M  RAD  8   8   2   9   2  10   2  12   2  13   2  14   3  15   3  17   2
M  RAD  6  18   2  19   2  20   2  22   2  23   2  24   2
M  END
>  <vina_score>  (5) 
-5.8819999999999997

>  <pose_id>  (5) 
5

$$$$
