
     RDKit          3D

 19 19  0  0  1  0  0  0  0  0999 V2000
   16.7460   16.4730   13.6890 N   0  0  0  0  0  0  0  0  0  0  0  0
   16.6410   17.4850   13.5640 H   0  0  0  0  0  0  0  0  0  0  0  0
   15.8410   16.0380   14.7660 C   0  0  0  0  0  2  0  0  0  0  0  0
   16.6140   15.5480   16.0020 C   0  0  0  0  0  2  0  0  0  0  0  0
   17.8750   15.0020   15.6090 O   0  0  0  0  0  0  0  0  0  0  0  0
   17.8790   13.5850   15.6830 C   0  0  0  0  0  1  0  0  0  0  0  0
   16.4280   15.8240   12.4030 C   0  0  0  0  0  3  0  0  0  0  0  0
   15.5560   14.5990   12.6760 C   0  0  0  0  0  1  0  0  0  0  0  0
   17.7160   15.3760   11.6690 C   0  0  0  0  0  0  0  0  0  0  0  0
   17.7630   15.3050   10.4420 O   0  0  0  0  0  0  0  0  0  0  0  0
   18.7540   15.0960   12.5460 N   0  0  0  0  0  0  0  0  0  0  0  0
   18.5540   15.2040   13.5330 H   0  0  0  0  0  0  0  0  0  0  0  0
   20.0610   14.6730   12.2270 C   0  0  0  0  0  0  0  0  0  0  0  0
   20.5170   13.4960   12.8390 C   0  0  0  0  0  3  0  0  0  0  0  0
   20.9110   15.3500   11.3510 C   0  0  0  0  0  3  0  0  0  0  0  0
   21.8010   13.0060   12.5780 C   0  0  0  0  0  3  0  0  0  0  0  0
   22.1970   14.8620   11.0880 C   0  0  0  0  0  3  0  0  0  0  0  0
   22.6350   13.6920   11.7020 C   0  0  0  0  0  0  0  0  0  0  0  0
   24.3700   13.0340   11.3450 Br  0  0  0  0  0  0  0  0  0  0  0  0
  1  3  1  0
  2  1  1  0
  3  4  1  0
  5  6  1  0
  5  4  1  0
  7  8  1  0
  7  1  1  0
  9  7  1  0
  9 11  1  0
 10  9  2  0
 11 12  1  0
 13 11  1  0
 13 14  1  0
 15 13  2  0
 16 14  2  0
 17 15  1  0
 17 18  2  0
 18 16  1  0
 19 18  1  0
M  RAD  8   3   3   4   3   6   2   7   2   8   2  14   2  15   2  16   2
M  RAD  1  17   2
M  END
>  <vina_score>  (1) 
-4.9470000000000001

>  <pose_id>  (1) 
1

$$$$

     RDKit          3D

 19 19  0  0  1  0  0  0  0  0999 V2000
   23.0040   11.2940   16.0120 N   0  0  0  0  0  0  0  0  0  0  0  0
   23.0700   12.1570   16.5600 H   0  0  0  0  0  0  0  0  0  0  0  0
   24.1510   11.2370   15.0890 C   0  0  0  0  0  2  0  0  0  0  0  0
   25.0770   12.4550   15.2510 C   0  0  0  0  0  2  0  0  0  0  0  0
   26.3110   12.0580   15.8530 O   0  0  0  0  0  0  0  0  0  0  0  0
   26.5420   10.6650   15.7080 C   0  0  0  0  0  1  0  0  0  0  0  0
   22.9970   10.1600   16.9550 C   0  0  0  0  0  3  0  0  0  0  0  0
   23.1460    8.8630   16.1620 C   0  0  0  0  0  1  0  0  0  0  0  0
   21.6740   10.1120   17.7610 C   0  0  0  0  0  0  0  0  0  0  0  0
   20.7420    9.3860   17.4190 O   0  0  0  0  0  0  0  0  0  0  0  0
   21.6980   10.9480   18.8670 N   0  0  0  0  0  0  0  0  0  0  0  0
   22.5450   11.4840   19.0110 H   0  0  0  0  0  0  0  0  0  0  0  0
   20.6780   11.1460   19.8190 C   0  0  0  0  0  0  0  0  0  0  0  0
   20.8280   10.5050   21.0580 C   0  0  0  0  0  3  0  0  0  0  0  0
   19.5440   11.9320   19.6000 C   0  0  0  0  0  3  0  0  0  0  0  0
   19.8620   10.6490   22.0590 C   0  0  0  0  0  3  0  0  0  0  0  0
   18.5750   12.0770   20.6000 C   0  0  0  0  0  3  0  0  0  0  0  0
   18.7390   11.4360   21.8250 C   0  0  0  0  0  0  0  0  0  0  0  0
   17.4310   11.6340   23.1740 Br  0  0  0  0  0  0  0  0  0  0  0  0
  1  2  1  0
  1  7  1  0
  3  4  1  0
  3  1  1  0
  4  5  1  0
  6  5  1  0
  7  8  1  0
  7  9  1  0
  9 11  1  0
 10  9  2  0
 11 12  1  0
 11 13  1  0
 13 14  1  0
 14 16  2  0
 15 13  2  0
 15 17  1  0
 17 18  2  0
 18 16  1  0
 18 19  1  0
M  RAD  8   3   3   4   3   6   2   7   2   8   2  14   2  15   2  16   2
M  RAD  1  17   2
M  END
>  <vina_score>  (2) 
-4.9340000000000002

>  <pose_id>  (2) 
2

$$$$

     RDKit          3D

 19 19  0  0  1  0  0  0  0  0999 V2000
   24.5570   10.5840   17.2060 N   0  0  0  0  0  0  0  0  0  0  0  0
   24.4210   11.5680   17.4590 H   0  0  0  0  0  0  0  0  0  0  0  0
   23.2470    9.9110   17.2190 C   0  0  0  0  0  2  0  0  0  0  0  0
   22.6880    9.7730   18.6450 C   0  0  0  0  0  2  0  0  0  0  0  0
   21.6900   10.7690   18.8810 O   0  0  0  0  0  0  0  0  0  0  0  0
   21.4950   10.9950   20.2690 C   0  0  0  0  0  1  0  0  0  0  0  0
   25.1850   10.5450   15.8720 C   0  0  0  0  0  3  0  0  0  0  0  0
   26.6930   10.3760   16.0450 C   0  0  0  0  0  1  0  0  0  0  0  0
   24.9090   11.8510   15.0860 C   0  0  0  0  0  0  0  0  0  0  0  0
   25.4450   12.9130   15.3990 O   0  0  0  0  0  0  0  0  0  0  0  0
   24.0310   11.6570   14.0290 N   0  0  0  0  0  0  0  0  0  0  0  0
   23.6750   10.7180   13.9040 H   0  0  0  0  0  0  0  0  0  0  0  0
   23.5680   12.6170   13.1070 C   0  0  0  0  0  0  0  0  0  0  0  0
   24.2160   12.6720   11.8640 C   0  0  0  0  0  3  0  0  0  0  0  0
   22.5170   13.5030   13.3580 C   0  0  0  0  0  3  0  0  0  0  0  0
   23.8190   13.5960   10.8910 C   0  0  0  0  0  3  0  0  0  0  0  0
   22.1180   14.4280   12.3860 C   0  0  0  0  0  3  0  0  0  0  0  0
   22.7710   14.4690   11.1580 C   0  0  0  0  0  0  0  0  0  0  0  0
   22.2300   15.7180    9.8470 Br  0  0  0  0  0  0  0  0  0  0  0  0
  1  3  1  0
  1  2  1  0
  3  4  1  0
  4  5  1  0
  5  6  1  0
  7  8  1  0
  7  1  1  0
  9 10  2  0
  9  7  1  0
 11  9  1  0
 12 11  1  0
 13 15  2  0
 13 11  1  0
 14 13  1  0
 16 18  1  0
 16 14  2  0
 17 15  1  0
 18 17  2  0
 19 18  1  0
M  RAD  8   3   3   4   3   6   2   7   2   8   2  14   2  15   2  16   2
M  RAD  1  17   2
M  END
>  <vina_score>  (3) 
-4.8049999999999997

>  <pose_id>  (3) 
3

$$$$

     RDKit          3D

 19 19  0  0  1  0  0  0  0  0999 V2000
   20.7690   11.2630   17.8930 N   0  0  0  0  0  0  0  0  0  0  0  0
   20.4760   11.5400   16.9510 H   0  0  0  0  0  0  0  0  0  0  0  0
   19.5680   10.9090   18.6700 C   0  0  0  0  0  2  0  0  0  0  0  0
   19.2330   11.9750   19.7260 C   0  0  0  0  0  2  0  0  0  0  0  0
   20.2110   11.9600   20.7690 O   0  0  0  0  0  0  0  0  0  0  0  0
   19.9800   10.9010   21.6870 C   0  0  0  0  0  1  0  0  0  0  0  0
   21.6970   10.1250   17.7620 C   0  0  0  0  0  3  0  0  0  0  0  0
   22.5640   10.0520   19.0180 C   0  0  0  0  0  1  0  0  0  0  0  0
   22.6140   10.2930   16.5240 C   0  0  0  0  0  0  0  0  0  0  0  0
   23.5260    9.5010   16.2900 O   0  0  0  0  0  0  0  0  0  0  0  0
   22.2670   11.3930   15.7540 N   0  0  0  0  0  0  0  0  0  0  0  0
   21.4870   11.9480   16.0840 H   0  0  0  0  0  0  0  0  0  0  0  0
   22.8760   11.8370   14.5630 C   0  0  0  0  0  0  0  0  0  0  0  0
   22.3870   11.3060   13.3600 C   0  0  0  0  0  3  0  0  0  0  0  0
   23.9220   12.7610   14.5140 C   0  0  0  0  0  3  0  0  0  0  0  0
   22.9340   11.6930   12.1330 C   0  0  0  0  0  3  0  0  0  0  0  0
   24.4720   13.1500   13.2870 C   0  0  0  0  0  3  0  0  0  0  0  0
   23.9750   12.6150   12.1030 C   0  0  0  0  0  0  0  0  0  0  0  0
   24.7190   13.1420   10.4470 Br  0  0  0  0  0  0  0  0  0  0  0  0
  1  3  1  0
  2  1  1  0
  3  4  1  0
  4  5  1  0
  5  6  1  0
  7  1  1  0
  7  8  1  0
  9  7  1  0
 10  9  2  0
 11 12  1  0
 11  9  1  0
 13 11  1  0
 14 13  1  0
 15 13  2  0
 16 14  2  0
 17 15  1  0
 18 16  1  0
 18 17  2  0
 19 18  1  0
M  RAD  8   3   3   4   3   6   2   7   2   8   2  14   2  15   2  16   2
M  RAD  1  17   2
M  END
>  <vina_score>  (4) 
-4.7560000000000002

>  <pose_id>  (4) 
4

$$$$

     RDKit          3D

 19 19  0  0  1  0  0  0  0  0999 V2000
   16.1400   15.0990   13.5690 N   0  0  0  0  0  0  0  0  0  0  0  0
   15.4470   15.4370   14.2430 H   0  0  0  0  0  0  0  0  0  0  0  0
   16.2870   16.1070   12.5040 C   0  0  0  0  0  2  0  0  0  0  0  0
   15.6950   15.6210   11.1700 C   0  0  0  0  0  2  0  0  0  0  0  0
   16.6630   15.7470   10.1270 O   0  0  0  0  0  0  0  0  0  0  0  0
   17.8050   16.4730   10.5560 C   0  0  0  0  0  1  0  0  0  0  0  0
   17.4040   14.8750   14.2950 C   0  0  0  0  0  3  0  0  0  0  0  0
   17.9340   16.2230   14.7820 C   0  0  0  0  0  1  0  0  0  0  0  0
   18.4650   14.2150   13.3790 C   0  0  0  0  0  0  0  0  0  0  0  0
   18.2020   13.2150   12.7110 O   0  0  0  0  0  0  0  0  0  0  0  0
   19.6790   14.8840   13.4080 N   0  0  0  0  0  0  0  0  0  0  0  0
   19.7340   15.6950   14.0120 H   0  0  0  0  0  0  0  0  0  0  0  0
   20.8540   14.5680   12.6970 C   0  0  0  0  0  0  0  0  0  0  0  0
   21.7000   13.6010   13.2600 C   0  0  0  0  0  3  0  0  0  0  0  0
   21.2180   15.1550   11.4830 C   0  0  0  0  0  3  0  0  0  0  0  0
   22.8860   13.2280   12.6200 C   0  0  0  0  0  3  0  0  0  0  0  0
   22.4050   14.7830   10.8400 C   0  0  0  0  0  3  0  0  0  0  0  0
   23.2320   13.8210   11.4110 C   0  0  0  0  0  0  0  0  0  0  0  0
   24.8340   13.3210   10.5420 Br  0  0  0  0  0  0  0  0  0  0  0  0
  1  2  1  0
  1  7  1  0
  3  1  1  0
  4  3  1  0
  5  6  1  0
  5  4  1  0
  7  8  1  0
  9 11  1  0
  9  7  1  0
 10  9  2  0
 11 12  1  0
 13 14  1  0
 13 11  1  0
 15 13  2  0
 16 14  2  0
 17 18  2  0
 17 15  1  0
 18 16  1  0
 19 18  1  0
M  RAD  8   3   3   4   3   6   2   7   2   8   2  14   2  15   2  16   2
M  RAD  1  17   2
M  END
>  <vina_score>  (5) 
-4.7489999999999997

>  <pose_id>  (5) 
5

$$$$
