
     RDKit          3D

 24 26  0  0  0  0  0  0  0  0999 V2000
   16.4790   12.6090   16.8310 C   0  0  0  0  0  2  0  0  0  0  0  0
   17.7510   12.2580   17.4730 N   0  0  0  0  0  0  0  0  0  0  0  0
   18.8870   12.3190   16.5570 C   0  0  0  0  0  1  0  0  0  0  0  0
   17.6840   10.9980   18.2380 C   0  0  0  0  0  2  0  0  0  0  0  0
   17.5420   11.1010   19.7460 C   0  0  0  0  0  0  0  0  0  0  0  0
   16.3340   10.6860   20.3440 C   0  0  0  0  0  3  0  0  0  0  0  0
   18.5680   11.5710   20.5900 C   0  0  0  0  0  0  0  0  0  0  0  0
   16.1480   10.7610   21.7250 C   0  0  0  0  0  3  0  0  0  0  0  0
   18.3790   11.6470   21.9730 C   0  0  0  0  0  3  0  0  0  0  0  0
   17.1720   11.2460   22.5250 C   0  0  0  0  0  0  0  0  0  0  0  0
   20.1170   12.0510   19.9910 Cl  0  0  0  0  0  0  0  0  0  0  0  0
   16.9950   11.3180   23.8500 F   0  0  0  0  0  0  0  0  0  0  0  0
   16.5070   13.9050   16.0080 C   0  0  0  0  0  2  0  0  0  0  0  0
   15.4870   13.9090   14.8700 C   0  0  0  0  0  2  0  0  0  0  0  0
   16.0870   14.4460   13.6140 C   0  0  0  0  0  0  0  0  0  0  0  0
   17.3670   14.4740   13.3020 N   0  0  0  0  0  0  0  0  0  0  0  0
   15.3270   14.9910   12.6080 N   0  0  0  0  0  0  0  0  0  0  0  0
   17.4340   15.0500   12.0580 C   0  0  0  0  0  0  0  0  0  0  0  0
   16.1660   15.3850   11.5970 C   0  0  0  0  0  0  0  0  0  0  0  0
   18.5490   15.3230   11.2530 C   0  0  0  0  0  3  0  0  0  0  0  0
   15.9330   15.9870   10.3590 C   0  0  0  0  0  3  0  0  0  0  0  0
   18.3450   15.9260   10.0050 C   0  0  0  0  0  3  0  0  0  0  0  0
   17.0570   16.2520    9.5690 C   0  0  0  0  0  3  0  0  0  0  0  0
   14.3220   15.0850   12.6130 H   0  0  0  0  0  0  0  0  0  0  0  0
  1  2  1  0
  2  4  1  0
  3  2  1  0
  4  5  1  0
  5  6  2  0
  5  7  1  0
  6  8  1  0
  7  9  2  0
  8 10  2  0
  9 10  1  0
 10 12  1  0
 11  7  1  0
 13  1  1  0
 14 13  1  0
 15 14  1  0
 16 15  2  0
 17 24  1  0
 17 15  1  0
 18 16  1  0
 19 18  1  0
 19 17  1  0
 20 18  2  0
 21 19  2  0
 22 20  1  0
 23 22  2  0
 23 21  1  0
M  END
>  <vina_score>  (1) 
-7.1920000000000002

>  <pose_id>  (1) 
1

$$$$

     RDKit          3D

 24 26  0  0  0  0  0  0  0  0999 V2000
   18.8730   10.3990   18.0590 C   0  0  0  0  0  2  0  0  0  0  0  0
   19.9100   10.0720   19.0450 N   0  0  0  0  0  0  0  0  0  0  0  0
   21.1060    9.4900   18.4430 C   0  0  0  0  0  1  0  0  0  0  0  0
   19.3940    9.2960   20.1900 C   0  0  0  0  0  2  0  0  0  0  0  0
   18.5270   10.0270   21.1990 C   0  0  0  0  0  0  0  0  0  0  0  0
   19.1420   10.9240   22.0980 C   0  0  0  0  0  3  0  0  0  0  0  0
   17.1290    9.8750   21.2720 C   0  0  0  0  0  0  0  0  0  0  0  0
   18.3940   11.6200   23.0480 C   0  0  0  0  0  3  0  0  0  0  0  0
   16.3810   10.5720   22.2260 C   0  0  0  0  0  3  0  0  0  0  0  0
   17.0220   11.4330   23.1050 C   0  0  0  0  0  0  0  0  0  0  0  0
   16.2470    8.8560   20.1900 Cl  0  0  0  0  0  0  0  0  0  0  0  0
   16.3030   12.1010   24.0160 F   0  0  0  0  0  0  0  0  0  0  0  0
   18.3510   11.8410   18.1260 C   0  0  0  0  0  2  0  0  0  0  0  0
   16.8390   11.9350   17.9180 C   0  0  0  0  0  2  0  0  0  0  0  0
   16.5160   12.6000   16.6220 C   0  0  0  0  0  0  0  0  0  0  0  0
   16.0290   12.0250   15.5410 N   0  0  0  0  0  0  0  0  0  0  0  0
   16.7020   13.9450   16.4190 N   0  0  0  0  0  0  0  0  0  0  0  0
   15.8950   13.0290   14.6150 C   0  0  0  0  0  0  0  0  0  0  0  0
   16.3100   14.2470   15.1400 C   0  0  0  0  0  0  0  0  0  0  0  0
   15.4230   12.9770   13.2960 C   0  0  0  0  0  3  0  0  0  0  0  0
   16.2850   15.4430   14.4190 C   0  0  0  0  0  3  0  0  0  0  0  0
   15.3860   14.1610   12.5480 C   0  0  0  0  0  3  0  0  0  0  0  0
   15.8110   15.3720   13.1040 C   0  0  0  0  0  3  0  0  0  0  0  0
   17.0660   14.6000   17.0960 H   0  0  0  0  0  0  0  0  0  0  0  0
  1 13  1  0
  1  2  1  0
  2  4  1  0
  3  2  1  0
  4  5  1  0
  5  7  2  0
  5  6  1  0
  6  8  2  0
  7  9  1  0
  8 10  1  0
  9 10  2  0
 10 12  1  0
 11  7  1  0
 14 13  1  0
 15 14  1  0
 16 15  2  0
 17 15  1  0
 17 24  1  0
 18 19  1  0
 18 16  1  0
 19 17  1  0
 20 18  2  0
 21 19  2  0
 22 23  2  0
 22 20  1  0
 23 21  1  0
M  END
>  <vina_score>  (2) 
-7.157

>  <pose_id>  (2) 
2

$$$$

     RDKit          3D

 24 26  0  0  0  0  0  0  0  0999 V2000
   23.2400    9.0470   18.2230 C   0  0  0  0  0  2  0  0  0  0  0  0
   23.3940    8.6350   16.8230 N   0  0  0  0  0  0  0  0  0  0  0  0
   23.1860    7.2030   16.6240 C   0  0  0  0  0  1  0  0  0  0  0  0
   24.6380    9.1360   16.2060 C   0  0  0  0  0  2  0  0  0  0  0  0
   24.5310   10.3530   15.3040 C   0  0  0  0  0  0  0  0  0  0  0  0
   25.0460   11.5840   15.7610 C   0  0  0  0  0  3  0  0  0  0  0  0
   23.9640   10.3130   14.0150 C   0  0  0  0  0  0  0  0  0  0  0  0
   24.9720   12.7340   14.9760 C   0  0  0  0  0  3  0  0  0  0  0  0
   23.8890   11.4680   13.2290 C   0  0  0  0  0  3  0  0  0  0  0  0
   24.3900   12.6650   13.7190 C   0  0  0  0  0  0  0  0  0  0  0  0
   23.3550    8.8560   13.3120 Cl  0  0  0  0  0  0  0  0  0  0  0  0
   24.3200   13.7680   12.9630 F   0  0  0  0  0  0  0  0  0  0  0  0
   21.8900    9.6950   18.5600 C   0  0  0  0  0  2  0  0  0  0  0  0
   21.9420   10.5550   19.8230 C   0  0  0  0  0  2  0  0  0  0  0  0
   20.6080   10.6130   20.4880 C   0  0  0  0  0  0  0  0  0  0  0  0
   19.5070   10.0010   20.0990 N   0  0  0  0  0  0  0  0  0  0  0  0
   20.3830   11.3470   21.6270 N   0  0  0  0  0  0  0  0  0  0  0  0
   18.5470   10.3470   21.0170 C   0  0  0  0  0  0  0  0  0  0  0  0
   19.0700   11.1920   21.9890 C   0  0  0  0  0  0  0  0  0  0  0  0
   17.1960    9.9770   21.0870 C   0  0  0  0  0  3  0  0  0  0  0  0
   18.3170   11.7030   23.0480 C   0  0  0  0  0  3  0  0  0  0  0  0
   16.4160   10.4740   22.1390 C   0  0  0  0  0  3  0  0  0  0  0  0
   16.9710   11.3230   23.1020 C   0  0  0  0  0  3  0  0  0  0  0  0
   21.0690   11.9050   22.1140 H   0  0  0  0  0  0  0  0  0  0  0  0
  1 13  1  0
  2  1  1  0
  3  2  1  0
  4  2  1  0
  5  6  1  0
  5  4  1  0
  7  5  2  0
  8  6  2  0
  9 10  2  0
  9  7  1  0
 10  8  1  0
 11  7  1  0
 12 10  1  0
 13 14  1  0
 14 15  1  0
 15 17  1  0
 16 15  2  0
 16 18  1  0
 17 19  1  0
 17 24  1  0
 18 20  2  0
 18 19  1  0
 19 21  2  0
 20 22  1  0
 21 23  1  0
 22 23  2  0
M  END
>  <vina_score>  (3) 
-6.9880000000000004

>  <pose_id>  (3) 
3

$$$$

     RDKit          3D

 24 26  0  0  0  0  0  0  0  0999 V2000
   18.8970    9.6130   17.7400 C   0  0  0  0  0  2  0  0  0  0  0  0
   19.6240    8.9180   18.8090 N   0  0  0  0  0  0  0  0  0  0  0  0
   20.4710    7.8370   18.3120 C   0  0  0  0  0  1  0  0  0  0  0  0
   18.7550    8.5120   19.9300 C   0  0  0  0  0  2  0  0  0  0  0  0
   18.3340    9.5870   20.9150 C   0  0  0  0  0  0  0  0  0  0  0  0
   16.9610    9.7440   21.2020 C   0  0  0  0  0  3  0  0  0  0  0  0
   19.2470   10.4270   21.5820 C   0  0  0  0  0  0  0  0  0  0  0  0
   16.5170   10.7180   22.0970 C   0  0  0  0  0  3  0  0  0  0  0  0
   18.8000   11.4040   22.4770 C   0  0  0  0  0  3  0  0  0  0  0  0
   17.4420   11.5420   22.7220 C   0  0  0  0  0  0  0  0  0  0  0  0
   20.9570   10.2960   21.3680 Cl  0  0  0  0  0  0  0  0  0  0  0  0
   17.0170   12.4760   23.5810 F   0  0  0  0  0  0  0  0  0  0  0  0
   19.3280   11.0680   17.5070 C   0  0  0  0  0  2  0  0  0  0  0  0
   18.2780   12.0790   17.9680 C   0  0  0  0  0  2  0  0  0  0  0  0
   17.6180   12.7360   16.8020 C   0  0  0  0  0  0  0  0  0  0  0  0
   17.7390   13.9950   16.4350 N   0  0  0  0  0  0  0  0  0  0  0  0
   16.7790   12.0570   15.9520 N   0  0  0  0  0  0  0  0  0  0  0  0
   16.9570   14.1320   15.3140 C   0  0  0  0  0  0  0  0  0  0  0  0
   16.3420   12.9290   14.9880 C   0  0  0  0  0  0  0  0  0  0  0  0
   16.7220   15.2600   14.5160 C   0  0  0  0  0  3  0  0  0  0  0  0
   15.4890   12.7750   13.8940 C   0  0  0  0  0  3  0  0  0  0  0  0
   15.8690   15.1350   13.4110 C   0  0  0  0  0  3  0  0  0  0  0  0
   15.2640   13.9110   13.1080 C   0  0  0  0  0  3  0  0  0  0  0  0
   16.5260   11.0830   16.0270 H   0  0  0  0  0  0  0  0  0  0  0  0
  1  2  1  0
  2  4  1  0
  3  2  1  0
  4  5  1  0
  5  6  2  0
  5  7  1  0
  6  8  1  0
  7  9  2  0
  8 10  2  0
  9 10  1  0
 10 12  1  0
 11  7  1  0
 13  1  1  0
 13 14  1  0
 15 14  1  0
 16 15  2  0
 17 24  1  0
 17 15  1  0
 18 16  1  0
 19 18  1  0
 19 17  1  0
 20 18  2  0
 21 19  2  0
 22 20  1  0
 23 22  2  0
 23 21  1  0
M  END
>  <vina_score>  (4) 
-6.9269999999999996

>  <pose_id>  (4) 
4

$$$$

     RDKit          3D

 24 26  0  0  0  0  0  0  0  0999 V2000
   16.7970   13.0410   14.3180 C   0  0  0  0  0  2  0  0  0  0  0  0
   16.9420   14.4610   13.9740 N   0  0  0  0  0  0  0  0  0  0  0  0
   16.1580   15.3390   14.8380 C   0  0  0  0  0  1  0  0  0  0  0  0
   16.7480   14.7300   12.5360 C   0  0  0  0  0  2  0  0  0  0  0  0
   17.9780   15.0760   11.7150 C   0  0  0  0  0  0  0  0  0  0  0  0
   19.2480   14.7170   12.2130 C   0  0  0  0  0  3  0  0  0  0  0  0
   17.9170   15.7190   10.4640 C   0  0  0  0  0  0  0  0  0  0  0  0
   20.4110   15.0130   11.5020 C   0  0  0  0  0  3  0  0  0  0  0  0
   19.0840   16.0170    9.7530 C   0  0  0  0  0  3  0  0  0  0  0  0
   20.3180   15.6640   10.2810 C   0  0  0  0  0  0  0  0  0  0  0  0
   16.4210   16.1550    9.7140 Cl  0  0  0  0  0  0  0  0  0  0  0  0
   21.4330   15.9480    9.5980 F   0  0  0  0  0  0  0  0  0  0  0  0
   18.0390   12.4030   14.9560 C   0  0  0  0  0  2  0  0  0  0  0  0
   18.6490   11.2970   14.0930 C   0  0  0  0  0  2  0  0  0  0  0  0
   20.0690   11.6040   13.7560 C   0  0  0  0  0  0  0  0  0  0  0  0
   20.6910   11.3170   12.6300 N   0  0  0  0  0  0  0  0  0  0  0  0
   20.9120   12.2480   14.6290 N   0  0  0  0  0  0  0  0  0  0  0  0
   21.9700   11.7930   12.7800 C   0  0  0  0  0  0  0  0  0  0  0  0
   22.1360   12.3830   14.0270 C   0  0  0  0  0  0  0  0  0  0  0  0
   23.0520   11.7570   11.8900 C   0  0  0  0  0  3  0  0  0  0  0  0
   23.3380   12.9530   14.4530 C   0  0  0  0  0  3  0  0  0  0  0  0
   24.2700   12.3210   12.2890 C   0  0  0  0  0  3  0  0  0  0  0  0
   24.4070   12.9080   13.5510 C   0  0  0  0  0  3  0  0  0  0  0  0
   20.6690   12.5660   15.5560 H   0  0  0  0  0  0  0  0  0  0  0  0
  1 13  1  0
  2  1  1  0
  2  3  1  0
  4  2  1  0
  5  6  1  0
  5  4  1  0
  7  5  2  0
  8  6  2  0
  9 10  2  0
  9  7  1  0
 10  8  1  0
 11  7  1  0
 12 10  1  0
 14 13  1  0
 15 14  1  0
 15 17  1  0
 16 18  1  0
 16 15  2  0
 17 24  1  0
 18 19  1  0
 19 21  2  0
 19 17  1  0
 20 22  1  0
 20 18  2  0
 22 23  2  0
 23 21  1  0
M  END
>  <vina_score>  (5) 
-6.891

>  <pose_id>  (5) 
5

$$$$
