
     RDKit          3D

 23 25  0  0  0  0  0  0  0  0999 V2000
   19.6220   12.3520   15.0190 C   0  0  0  0  0  2  0  0  0  0  0  0
   19.8190   12.6420   13.5210 C   0  0  0  0  0  0  0  0  0  0  0  0
   19.7710   11.7440   12.6870 O   0  0  0  0  0  0  0  0  0  0  0  0
   20.0900   13.9840   13.3010 N   0  0  0  0  0  0  0  0  0  0  0  0
   20.0880   14.5240   14.1600 H   0  0  0  0  0  0  0  0  0  0  0  0
   20.3350   14.6630   12.0850 C   0  0  0  0  0  0  0  0  0  0  0  0
   21.6400   14.8550   11.6170 C   0  0  0  0  0  3  0  0  0  0  0  0
   19.2280   15.1570   11.3210 C   0  0  0  0  0  0  0  0  0  0  0  0
   21.8800   15.5170   10.4160 C   0  0  0  0  0  3  0  0  0  0  0  0
   17.8620   15.0290   11.6920 C   0  0  0  0  0  3  0  0  0  0  0  0
   19.4960   15.8280   10.0990 C   0  0  0  0  0  0  0  0  0  0  0  0
   20.8160   15.9990    9.6630 C   0  0  0  0  0  3  0  0  0  0  0  0
   16.8250   15.5330   10.9000 C   0  0  0  0  0  3  0  0  0  0  0  0
   18.4430   16.3280    9.3130 C   0  0  0  0  0  3  0  0  0  0  0  0
   17.1160   16.1820    9.7100 C   0  0  0  0  0  3  0  0  0  0  0  0
   18.2150   11.9770   15.2810 N   0  0  0  0  0  0  0  0  0  0  0  0
   18.0830   11.7610   16.2720 H   0  0  0  0  0  0  0  0  0  0  0  0
   17.1950   12.8420   14.8520 C   0  0  0  0  0  0  0  0  0  0  0  0
   17.0810   14.0910   15.4820 C   0  0  0  0  0  3  0  0  0  0  0  0
   16.1980   12.4830   13.9390 C   0  0  0  0  0  3  0  0  0  0  0  0
   16.0510   14.9790   15.1600 C   0  0  0  0  0  3  0  0  0  0  0  0
   15.1630   13.3680   13.6130 C   0  0  0  0  0  3  0  0  0  0  0  0
   15.0940   14.6190   14.2180 C   0  0  0  0  0  3  0  0  0  0  0  0
  1 16  1  0
  2  1  1  0
  3  2  2  0
  4  2  1  0
  4  5  1  0
  6  4  1  0
  7  6  2  0
  8 10  2  0
  8  6  1  0
  9  7  1  0
 11  8  1  0
 12 11  1  0
 12  9  2  0
 13 10  1  0
 14 15  1  0
 14 11  2  0
 15 13  2  0
 16 17  1  0
 18 16  1  0
 18 19  2  0
 20 18  1  0
 21 19  1  0
 22 20  2  0
 22 23  1  0
 23 21  2  0
M  RAD  8   1   3   7   2   9   2  10   2  12   2  13   2  14   2  15   2
M  RAD  5  19   2  20   2  21   2  22   2  23   2
M  END
>  <vina_score>  (1) 
-7.1980000000000004

>  <pose_id>  (1) 
1

$$$$

     RDKit          3D

 23 25  0  0  0  0  0  0  0  0999 V2000
   20.4430   11.8650   14.7620 C   0  0  0  0  0  2  0  0  0  0  0  0
   19.6930   12.2840   13.4860 C   0  0  0  0  0  0  0  0  0  0  0  0
   19.2520   11.4500   12.7030 O   0  0  0  0  0  0  0  0  0  0  0  0
   19.6470   13.6650   13.3610 N   0  0  0  0  0  0  0  0  0  0  0  0
   20.0970   14.1380   14.1380 H   0  0  0  0  0  0  0  0  0  0  0  0
   19.0620   14.4560   12.3460 C   0  0  0  0  0  0  0  0  0  0  0  0
   17.6800   14.6700   12.3040 C   0  0  0  0  0  3  0  0  0  0  0  0
   19.9020   15.0510   11.3490 C   0  0  0  0  0  0  0  0  0  0  0  0
   17.1070   15.4560   11.3080 C   0  0  0  0  0  3  0  0  0  0  0  0
   21.3140   14.9040   11.2810 C   0  0  0  0  0  3  0  0  0  0  0  0
   19.2970   15.8500   10.3430 C   0  0  0  0  0  0  0  0  0  0  0  0
   17.9090   16.0410   10.3360 C   0  0  0  0  0  3  0  0  0  0  0  0
   22.0790   15.5130   10.2810 C   0  0  0  0  0  3  0  0  0  0  0  0
   20.0790   16.4560    9.3450 C   0  0  0  0  0  3  0  0  0  0  0  0
   21.4610   16.2890    9.3130 C   0  0  0  0  0  3  0  0  0  0  0  0
   21.7210   11.2110   14.4060 N   0  0  0  0  0  0  0  0  0  0  0  0
   21.5500   10.2680   14.0510 H   0  0  0  0  0  0  0  0  0  0  0  0
   22.6050   11.8810   13.5440 C   0  0  0  0  0  0  0  0  0  0  0  0
   22.8640   11.3070   12.2890 C   0  0  0  0  0  3  0  0  0  0  0  0
   23.3540   13.0040   13.9100 C   0  0  0  0  0  3  0  0  0  0  0  0
   23.7830   11.8770   11.4040 C   0  0  0  0  0  3  0  0  0  0  0  0
   24.2760   13.5780   13.0270 C   0  0  0  0  0  3  0  0  0  0  0  0
   24.4860   13.0180   11.7710 C   0  0  0  0  0  3  0  0  0  0  0  0
  2  1  1  0
  3  2  2  0
  4  2  1  0
  4  5  1  0
  6  4  1  0
  7  6  2  0
  8  6  1  0
  9  7  1  0
 10  8  2  0
 11  8  1  0
 12 11  1  0
 12  9  2  0
 13 10  1  0
 14 11  2  0
 15 14  1  0
 15 13  2  0
 16  1  1  0
 17 16  1  0
 18 20  1  0
 18 16  1  0
 19 18  2  0
 21 23  2  0
 21 19  1  0
 22 20  2  0
 23 22  1  0
M  RAD  8   1   3   7   2   9   2  10   2  12   2  13   2  14   2  15   2
M  RAD  5  19   2  20   2  21   2  22   2  23   2
M  END
>  <vina_score>  (2) 
-6.9800000000000004

>  <pose_id>  (2) 
2

$$$$

     RDKit          3D

 23 25  0  0  0  0  0  0  0  0999 V2000
   20.5200   12.3310   14.6850 C   0  0  0  0  0  2  0  0  0  0  0  0
   19.4930   12.5040   13.5520 C   0  0  0  0  0  0  0  0  0  0  0  0
   19.3550   11.6510   12.6820 O   0  0  0  0  0  0  0  0  0  0  0  0
   18.8370   13.7210   13.6500 N   0  0  0  0  0  0  0  0  0  0  0  0
   19.1400   14.2590   14.4560 H   0  0  0  0  0  0  0  0  0  0  0  0
   17.8320   14.2710   12.8200 C   0  0  0  0  0  0  0  0  0  0  0  0
   16.4760   14.1050   13.1220 C   0  0  0  0  0  3  0  0  0  0  0  0
   18.2140   15.0120   11.6540 C   0  0  0  0  0  0  0  0  0  0  0  0
   15.4890   14.6540   12.3080 C   0  0  0  0  0  3  0  0  0  0  0  0
   19.5530   15.2440   11.2400 C   0  0  0  0  0  3  0  0  0  0  0  0
   17.1900   15.5630   10.8380 C   0  0  0  0  0  0  0  0  0  0  0  0
   15.8440   15.3770   11.1760 C   0  0  0  0  0  3  0  0  0  0  0  0
   19.8600   15.9780   10.0900 C   0  0  0  0  0  3  0  0  0  0  0  0
   17.5150   16.3000    9.6860 C   0  0  0  0  0  3  0  0  0  0  0  0
   18.8400   16.5070    9.3130 C   0  0  0  0  0  3  0  0  0  0  0  0
   21.6670   13.2400   14.4710 N   0  0  0  0  0  0  0  0  0  0  0  0
   22.2210   13.3200   15.3250 H   0  0  0  0  0  0  0  0  0  0  0  0
   22.5200   13.0040   13.3810 C   0  0  0  0  0  0  0  0  0  0  0  0
   23.4460   11.9530   13.4840 C   0  0  0  0  0  3  0  0  0  0  0  0
   22.6070   13.8360   12.2600 C   0  0  0  0  0  3  0  0  0  0  0  0
   24.3760   11.6990   12.4710 C   0  0  0  0  0  3  0  0  0  0  0  0
   23.5360   13.5860   11.2430 C   0  0  0  0  0  3  0  0  0  0  0  0
   24.4160   12.5130   11.3450 C   0  0  0  0  0  3  0  0  0  0  0  0
  2  4  1  0
  2  1  1  0
  3  2  2  0
  4  5  1  0
  6  7  2  0
  6  4  1  0
  8  6  1  0
  9  7  1  0
 10  8  2  0
 11 12  1  0
 11  8  1  0
 12  9  2  0
 13 10  1  0
 14 11  2  0
 15 14  1  0
 15 13  2  0
 16  1  1  0
 16 17  1  0
 18 19  2  0
 18 16  1  0
 20 18  1  0
 21 19  1  0
 22 23  1  0
 22 20  2  0
 23 21  2  0
M  RAD  8   1   3   7   2   9   2  10   2  12   2  13   2  14   2  15   2
M  RAD  5  19   2  20   2  21   2  22   2  23   2
M  END
>  <vina_score>  (3) 
-6.9610000000000003

>  <pose_id>  (3) 
3

$$$$

     RDKit          3D

 23 25  0  0  0  0  0  0  0  0999 V2000
   19.1330   15.2350   14.2830 C   0  0  0  0  0  2  0  0  0  0  0  0
   19.8010   14.5590   13.0730 C   0  0  0  0  0  0  0  0  0  0  0  0
   19.3280   13.5480   12.5660 O   0  0  0  0  0  0  0  0  0  0  0  0
   20.9700   15.2140   12.7140 N   0  0  0  0  0  0  0  0  0  0  0  0
   21.1550   16.0220   13.2990 H   0  0  0  0  0  0  0  0  0  0  0  0
   21.8800   14.9220   11.6720 C   0  0  0  0  0  0  0  0  0  0  0  0
   21.9220   15.7030   10.5100 C   0  0  0  0  0  3  0  0  0  0  0  0
   22.7750   13.8120   11.8120 C   0  0  0  0  0  0  0  0  0  0  0  0
   22.8240   15.4190    9.4890 C   0  0  0  0  0  3  0  0  0  0  0  0
   22.8250   12.9450   12.9370 C   0  0  0  0  0  3  0  0  0  0  0  0
   23.6870   13.5410   10.7580 C   0  0  0  0  0  0  0  0  0  0  0  0
   23.6990   14.3470    9.6130 C   0  0  0  0  0  3  0  0  0  0  0  0
   23.7250   11.8770   13.0140 C   0  0  0  0  0  3  0  0  0  0  0  0
   24.5870   12.4650   10.8510 C   0  0  0  0  0  3  0  0  0  0  0  0
   24.6060   11.6380   11.9710 C   0  0  0  0  0  3  0  0  0  0  0  0
   18.0830   16.1690   13.8240 N   0  0  0  0  0  0  0  0  0  0  0  0
   18.4920   16.9130   13.2540 H   0  0  0  0  0  0  0  0  0  0  0  0
   16.9540   15.6480   13.1710 C   0  0  0  0  0  0  0  0  0  0  0  0
   16.1990   14.6700   13.8380 C   0  0  0  0  0  3  0  0  0  0  0  0
   16.6170   15.9320   11.8440 C   0  0  0  0  0  3  0  0  0  0  0  0
   15.1030   14.0530   13.2280 C   0  0  0  0  0  3  0  0  0  0  0  0
   15.5210   15.3170   11.2280 C   0  0  0  0  0  3  0  0  0  0  0  0
   14.7590   14.3830   11.9220 C   0  0  0  0  0  3  0  0  0  0  0  0
  2  1  1  0
  3  2  2  0
  4  2  1  0
  4  5  1  0
  6  8  1  0
  6  4  1  0
  7  6  2  0
  8 10  2  0
  9 12  2  0
  9  7  1  0
 10 13  1  0
 11 14  2  0
 11  8  1  0
 12 11  1  0
 14 15  1  0
 15 13  2  0
 16  1  1  0
 17 16  1  0
 18 16  1  0
 18 19  2  0
 20 18  1  0
 21 19  1  0
 22 20  2  0
 22 23  1  0
 23 21  2  0
M  RAD  8   1   3   7   2   9   2  10   2  12   2  13   2  14   2  15   2
M  RAD  5  19   2  20   2  21   2  22   2  23   2
M  END
>  <vina_score>  (4) 
-6.7759999999999998

>  <pose_id>  (4) 
4

$$$$

     RDKit          3D

 23 25  0  0  0  0  0  0  0  0999 V2000
   17.7620   13.3650   15.3270 C   0  0  0  0  0  2  0  0  0  0  0  0
   19.0680   14.0530   14.8930 C   0  0  0  0  0  0  0  0  0  0  0  0
   19.4770   15.0610   15.4600 O   0  0  0  0  0  0  0  0  0  0  0  0
   19.6340   13.4130   13.8010 N   0  0  0  0  0  0  0  0  0  0  0  0
   19.0960   12.6040   13.5060 H   0  0  0  0  0  0  0  0  0  0  0  0
   20.8210   13.7180   13.0950 C   0  0  0  0  0  0  0  0  0  0  0  0
   22.0630   13.2420   13.5310 C   0  0  0  0  0  3  0  0  0  0  0  0
   20.7450   14.5250   11.9130 C   0  0  0  0  0  0  0  0  0  0  0  0
   23.2280   13.5380   12.8300 C   0  0  0  0  0  3  0  0  0  0  0  0
   19.5480   15.0690   11.3740 C   0  0  0  0  0  3  0  0  0  0  0  0
   21.9470   14.8130   11.2130 C   0  0  0  0  0  0  0  0  0  0  0  0
   23.1700   14.3160   11.6810 C   0  0  0  0  0  3  0  0  0  0  0  0
   19.5420   15.8490   10.2130 C   0  0  0  0  0  3  0  0  0  0  0  0
   21.9240   15.5970   10.0470 C   0  0  0  0  0  3  0  0  0  0  0  0
   20.7300   16.1130    9.5500 C   0  0  0  0  0  3  0  0  0  0  0  0
   16.6370   14.3230   15.2530 N   0  0  0  0  0  0  0  0  0  0  0  0
   16.8230   15.1360   15.8440 H   0  0  0  0  0  0  0  0  0  0  0  0
   16.2000   14.7530   13.9900 C   0  0  0  0  0  0  0  0  0  0  0  0
   15.4600   13.8540   13.2060 C   0  0  0  0  0  3  0  0  0  0  0  0
   16.5770   15.9660   13.4030 C   0  0  0  0  0  3  0  0  0  0  0  0
   15.0480   14.1830   11.9120 C   0  0  0  0  0  3  0  0  0  0  0  0
   16.1670   16.3000   12.1060 C   0  0  0  0  0  3  0  0  0  0  0  0
   15.3970   15.4110   11.3630 C   0  0  0  0  0  3  0  0  0  0  0  0
  2  1  1  0
  2  3  2  0
  4  2  1  0
  5  4  1  0
  6  7  2  0
  6  4  1  0
  8  6  1  0
  9  7  1  0
 10  8  2  0
 11 12  1  0
 11  8  1  0
 12  9  2  0
 13 10  1  0
 14 11  2  0
 15 14  1  0
 15 13  2  0
 16  1  1  0
 16 17  1  0
 18 16  1  0
 19 18  2  0
 20 18  1  0
 21 19  1  0
 22 20  2  0
 23 21  2  0
 23 22  1  0
M  RAD  8   1   3   7   2   9   2  10   2  12   2  13   2  14   2  15   2
M  RAD  5  19   2  20   2  21   2  22   2  23   2
M  END
>  <vina_score>  (5) 
-6.774

>  <pose_id>  (5) 
5

$$$$
