
     RDKit          3D

 32 34  0  0  1  0  0  0  0  0999 V2000
   18.7410   13.3520   13.1770 C   0  0  0  0  0  0  0  0  0  0  0  0
   19.6050   12.4380   13.9320 N   0  0  0  0  0  0  0  0  0  0  0  0
   19.9740   11.2120   13.4250 C   0  0  0  0  0  0  0  0  0  0  0  0
   19.5740   10.7940   12.3420 O   0  0  0  0  0  0  0  0  0  0  0  0
   20.0450   12.7980   14.7660 H   0  0  0  0  0  0  0  0  0  0  0  0
   20.9010   10.3950   14.2510 C   0  0  0  0  0  0  0  0  0  0  0  0
   22.6570    8.9260   15.8790 C   0  0  0  0  0  0  0  0  0  0  0  0
   22.1180    8.3490   14.7260 C   0  0  0  0  0  3  0  0  0  0  0  0
   22.3020   10.2330   16.2190 C   0  0  0  0  0  3  0  0  0  0  0  0
   21.2400    9.0790   13.9140 C   0  0  0  0  0  3  0  0  0  0  0  0
   21.4230   10.9650   15.4160 C   0  0  0  0  0  3  0  0  0  0  0  0
   23.5240    8.3270   16.7500 O   0  0  0  0  0  0  0  0  0  0  0  0
   23.3900    8.6620   18.1260 C   0  0  0  0  0  1  0  0  0  0  0  0
   19.6900   14.2690   12.3660 C   0  0  0  0  0  0  0  0  0  0  0  0
   19.3080   15.0200   11.4720 O   0  0  0  0  0  0  0  0  0  0  0  0
   21.0010   14.2160   12.7960 N   0  0  0  0  0  0  0  0  0  0  0  0
   21.1870   13.7160   13.6680 H   0  0  0  0  0  0  0  0  0  0  0  0
   22.0460   15.0420   12.2270 C   0  0  0  0  0  2  0  0  0  0  0  0
   23.0210   14.2150   11.3890 C   0  0  0  0  0  2  0  0  0  0  0  0
   23.6440   13.0940   12.1830 C   0  0  0  0  0  0  0  0  0  0  0  0
   23.6260   11.7790   11.6920 C   0  0  0  0  0  3  0  0  0  0  0  0
   24.2580   13.3540   13.4160 C   0  0  0  0  0  3  0  0  0  0  0  0
   24.2100   10.7420   12.4210 C   0  0  0  0  0  3  0  0  0  0  0  0
   24.8330   12.3150   14.1490 C   0  0  0  0  0  0  0  0  0  0  0  0
   24.8240   11.0110   13.6430 C   0  0  0  0  0  0  0  0  0  0  0  0
   25.3910   12.6490   15.3560 O   0  0  0  0  0  0  0  0  0  0  0  0
   25.3900    9.9470   14.2970 O   0  0  0  0  0  0  0  0  0  0  0  0
   25.6210   11.4890   16.1620 C   0  0  0  0  0  2  0  0  0  0  0  0
   26.2690   10.3840   15.3400 C   0  0  0  0  0  2  0  0  0  0  0  0
   17.8080   14.1490   14.1180 C   0  0  0  0  0  3  0  0  0  0  0  0
   16.3670   14.1560   13.5920 C   0  0  0  0  0  1  0  0  0  0  0  0
   17.8090   13.5640   15.5370 C   0  0  0  0  0  1  0  0  0  0  0  0
  1 14  1  0
  1  2  1  0
  1 30  1  0
  2  5  1  0
  3  2  1  0
  3  6  1  0
  4  3  2  0
  6 11  2  0
  7  9  2  0
  7 12  1  0
  8  7  1  0
 10  6  1  0
 10  8  2  0
 11  9  1  0
 12 13  1  0
 14 16  1  0
 15 14  2  0
 16 17  1  0
 18 16  1  0
 19 20  1  0
 19 18  1  0
 20 22  2  0
 21 20  1  0
 21 23  2  0
 22 24  1  0
 23 25  1  0
 24 26  1  0
 25 24  2  0
 25 27  1  0
 26 28  1  0
 27 29  1  0
 29 28  1  0
 30 32  1  0
 31 30  1  0
M  RAD  8   8   2   9   2  10   2  11   2  13   2  18   3  19   3  21   2
M  RAD  7  22   2  23   2  28   3  29   3  30   2  31   2  32   2
M  END
>  <vina_score>  (1) 
-6.5990000000000002

>  <pose_id>  (1) 
1

$$$$

     RDKit          3D

 32 34  0  0  1  0  0  0  0  0999 V2000
   22.8650   10.6770   15.7010 C   0  0  0  0  0  0  0  0  0  0  0  0
   21.8830   10.8780   16.7720 N   0  0  0  0  0  0  0  0  0  0  0  0
   22.1370   10.4830   18.0660 C   0  0  0  0  0  0  0  0  0  0  0  0
   23.1710    9.9060   18.3930 O   0  0  0  0  0  0  0  0  0  0  0  0
   21.0800   11.4520   16.5620 H   0  0  0  0  0  0  0  0  0  0  0  0
   21.0950   10.7910   19.0800 C   0  0  0  0  0  0  0  0  0  0  0  0
   19.0620   11.4020   20.9200 C   0  0  0  0  0  0  0  0  0  0  0  0
   20.2640   10.8440   21.3600 C   0  0  0  0  0  3  0  0  0  0  0  0
   18.8780   11.6400   19.5560 C   0  0  0  0  0  3  0  0  0  0  0  0
   21.2790   10.5360   20.4430 C   0  0  0  0  0  3  0  0  0  0  0  0
   19.8830   11.3310   18.6360 C   0  0  0  0  0  3  0  0  0  0  0  0
   18.0000   11.7530   21.7070 O   0  0  0  0  0  0  0  0  0  0  0  0
   18.1880   11.6760   23.1150 C   0  0  0  0  0  1  0  0  0  0  0  0
   23.1580   12.0810   15.1160 C   0  0  0  0  0  0  0  0  0  0  0  0
   24.2880   12.5490   15.0060 O   0  0  0  0  0  0  0  0  0  0  0  0
   22.0270   12.7280   14.6580 N   0  0  0  0  0  0  0  0  0  0  0  0
   21.1630   12.1830   14.6100 H   0  0  0  0  0  0  0  0  0  0  0  0
   22.0730   14.0210   14.0100 C   0  0  0  0  0  2  0  0  0  0  0  0
   22.0930   13.8860   12.4870 C   0  0  0  0  0  2  0  0  0  0  0  0
   20.9060   14.5560   11.8410 C   0  0  0  0  0  0  0  0  0  0  0  0
   21.0740   15.3610   10.7040 C   0  0  0  0  0  3  0  0  0  0  0  0
   19.6170   14.3740   12.3640 C   0  0  0  0  0  3  0  0  0  0  0  0
   19.9750   15.9750   10.1000 C   0  0  0  0  0  3  0  0  0  0  0  0
   18.5210   14.9960   11.7660 C   0  0  0  0  0  0  0  0  0  0  0  0
   18.6980   15.7830   10.6230 C   0  0  0  0  0  0  0  0  0  0  0  0
   17.3000   14.7870   12.3520 O   0  0  0  0  0  0  0  0  0  0  0  0
   17.6640   16.4040    9.9700 O   0  0  0  0  0  0  0  0  0  0  0  0
   16.3300   15.7320   11.8880 C   0  0  0  0  0  2  0  0  0  0  0  0
   16.3980   15.8710   10.3730 C   0  0  0  0  0  2  0  0  0  0  0  0
   22.3410    9.6870   14.6350 C   0  0  0  0  0  3  0  0  0  0  0  0
   23.2910    9.6120   13.4330 C   0  0  0  0  0  1  0  0  0  0  0  0
   22.1710    8.2760   15.2140 C   0  0  0  0  0  1  0  0  0  0  0  0
  1 30  1  0
  1  2  1  0
  2  3  1  0
  3  4  2  0
  3  6  1  0
  5  2  1  0
  6 10  1  0
  7  8  1  0
  7 12  1  0
  9  7  2  0
 10  8  2  0
 11  6  2  0
 11  9  1  0
 12 13  1  0
 14  1  1  0
 15 14  2  0
 16 14  1  0
 17 16  1  0
 18 16  1  0
 19 18  1  0
 20 22  2  0
 20 19  1  0
 21 20  1  0
 23 25  1  0
 23 21  2  0
 24 26  1  0
 24 22  1  0
 25 24  2  0
 27 29  1  0
 27 25  1  0
 28 26  1  0
 29 28  1  0
 30 32  1  0
 31 30  1  0
M  RAD  8   8   2   9   2  10   2  11   2  13   2  18   3  19   3  21   2
M  RAD  7  22   2  23   2  28   3  29   3  30   2  31   2  32   2
M  END
>  <vina_score>  (2) 
-6.585

>  <pose_id>  (2) 
2

$$$$

     RDKit          3D

 32 34  0  0  1  0  0  0  0  0999 V2000
   25.0850    9.6990   14.5200 C   0  0  0  0  0  0  0  0  0  0  0  0
   24.4920   10.9430   14.0180 N   0  0  0  0  0  0  0  0  0  0  0  0
   24.5160   11.2630   12.6790 C   0  0  0  0  0  0  0  0  0  0  0  0
   25.0650   10.5570   11.8370 O   0  0  0  0  0  0  0  0  0  0  0  0
   23.9330   11.4830   14.6610 H   0  0  0  0  0  0  0  0  0  0  0  0
   23.8320   12.5200   12.2750 C   0  0  0  0  0  0  0  0  0  0  0  0
   22.5730   14.8800   11.4170 C   0  0  0  0  0  0  0  0  0  0  0  0
   22.4420   14.4550   12.7420 C   0  0  0  0  0  3  0  0  0  0  0  0
   23.3230   14.1120   10.5240 C   0  0  0  0  0  3  0  0  0  0  0  0
   23.0680   13.2760   13.1710 C   0  0  0  0  0  3  0  0  0  0  0  0
   23.9460   12.9340   10.9440 C   0  0  0  0  0  3  0  0  0  0  0  0
   22.0210   16.0070   10.8740 O   0  0  0  0  0  0  0  0  0  0  0  0
   20.6980   15.8960   10.3650 C   0  0  0  0  0  1  0  0  0  0  0  0
   23.9980    9.0270   15.3950 C   0  0  0  0  0  0  0  0  0  0  0  0
   23.7390    7.8270   15.3540 O   0  0  0  0  0  0  0  0  0  0  0  0
   23.3960    9.8980   16.2820 N   0  0  0  0  0  0  0  0  0  0  0  0
   23.8120   10.8270   16.3810 H   0  0  0  0  0  0  0  0  0  0  0  0
   22.4010    9.4720   17.2440 C   0  0  0  0  0  2  0  0  0  0  0  0
   22.5340   10.2330   18.5640 C   0  0  0  0  0  2  0  0  0  0  0  0
   21.1910   10.5680   19.1640 C   0  0  0  0  0  0  0  0  0  0  0  0
   20.0990   10.8760   18.3370 C   0  0  0  0  0  3  0  0  0  0  0  0
   21.0140   10.5640   20.5550 C   0  0  0  0  0  3  0  0  0  0  0  0
   18.8540   11.1770   18.8900 C   0  0  0  0  0  3  0  0  0  0  0  0
   19.7710   10.8750   21.1070 C   0  0  0  0  0  0  0  0  0  0  0  0
   18.6860   11.1640   20.2740 C   0  0  0  0  0  0  0  0  0  0  0  0
   19.6880   10.8730   22.4750 O   0  0  0  0  0  0  0  0  0  0  0  0
   17.4310   11.4560   20.7460 O   0  0  0  0  0  0  0  0  0  0  0  0
   18.5030   11.5370   22.9260 C   0  0  0  0  0  2  0  0  0  0  0  0
   17.2940   11.0830   22.1220 C   0  0  0  0  0  2  0  0  0  0  0  0
   26.3900    9.9740   15.3030 C   0  0  0  0  0  3  0  0  0  0  0  0
   26.3060   11.2970   16.0730 C   0  0  0  0  0  1  0  0  0  0  0  0
   26.6940    8.8460   16.2980 C   0  0  0  0  0  1  0  0  0  0  0  0
  1 30  1  0
  1 14  1  0
  2  1  1  0
  2  5  1  0
  3  2  1  0
  4  3  2  0
  6  3  1  0
  6 10  1  0
  7  8  1  0
  8 10  2  0
  9 11  1  0
  9  7  2  0
 11  6  2  0
 12  7  1  0
 13 12  1  0
 14 16  1  0
 15 14  2  0
 16 17  1  0
 16 18  1  0
 18 19  1  0
 19 20  1  0
 20 22  2  0
 21 23  2  0
 21 20  1  0
 22 24  1  0
 23 25  1  0
 24 26  1  0
 25 27  1  0
 25 24  2  0
 26 28  1  0
 27 29  1  0
 29 28  1  0
 30 31  1  0
 30 32  1  0
M  RAD  8   8   2   9   2  10   2  11   2  13   2  18   3  19   3  21   2
M  RAD  7  22   2  23   2  28   3  29   3  30   2  31   2  32   2
M  END
>  <vina_score>  (3) 
-6.5140000000000002

>  <pose_id>  (3) 
3

$$$$

     RDKit          3D

 32 34  0  0  1  0  0  0  0  0999 V2000
   17.8550   13.4580   15.0130 C   0  0  0  0  0  0  0  0  0  0  0  0
   17.9260   13.1470   16.4440 N   0  0  0  0  0  0  0  0  0  0  0  0
   17.7200   11.8700   16.9150 C   0  0  0  0  0  0  0  0  0  0  0  0
   17.4250   10.9310   16.1810 O   0  0  0  0  0  0  0  0  0  0  0  0
   18.2820   13.8660   17.0580 H   0  0  0  0  0  0  0  0  0  0  0  0
   17.8760   11.6600   18.3790 C   0  0  0  0  0  0  0  0  0  0  0  0
   18.2630   11.3040   21.1390 C   0  0  0  0  0  0  0  0  0  0  0  0
   17.0440   10.9600   20.5500 C   0  0  0  0  0  3  0  0  0  0  0  0
   19.2800   11.8380   20.3430 C   0  0  0  0  0  3  0  0  0  0  0  0
   16.8480   11.1390   19.1730 C   0  0  0  0  0  3  0  0  0  0  0  0
   19.0900   12.0230   18.9710 C   0  0  0  0  0  3  0  0  0  0  0  0
   18.5840   11.1750   22.4610 O   0  0  0  0  0  0  0  0  0  0  0  0
   17.7850   11.8970   23.3910 C   0  0  0  0  0  1  0  0  0  0  0  0
   19.0370   14.4160   14.7210 C   0  0  0  0  0  0  0  0  0  0  0  0
   19.2450   15.4490   15.3520 O   0  0  0  0  0  0  0  0  0  0  0  0
   19.8790   13.9570   13.7280 N   0  0  0  0  0  0  0  0  0  0  0  0
   19.7380   12.9990   13.4000 H   0  0  0  0  0  0  0  0  0  0  0  0
   21.0860   14.6570   13.3400 C   0  0  0  0  0  2  0  0  0  0  0  0
   21.8540   13.8960   12.2590 C   0  0  0  0  0  2  0  0  0  0  0  0
   22.8580   12.9340   12.8470 C   0  0  0  0  0  0  0  0  0  0  0  0
   23.2530   11.7940   12.1320 C   0  0  0  0  0  3  0  0  0  0  0  0
   23.4160   13.1760   14.1100 C   0  0  0  0  0  3  0  0  0  0  0  0
   24.1880   10.9080   12.6700 C   0  0  0  0  0  3  0  0  0  0  0  0
   24.3430   12.2850   14.6520 C   0  0  0  0  0  0  0  0  0  0  0  0
   24.7430   11.1590   13.9230 C   0  0  0  0  0  0  0  0  0  0  0  0
   24.8220   12.5790   15.9020 O   0  0  0  0  0  0  0  0  0  0  0  0
   25.6650   10.2540   14.3830 O   0  0  0  0  0  0  0  0  0  0  0  0
   25.4700   11.4470   16.4920 C   0  0  0  0  0  2  0  0  0  0  0  0
   26.4030   10.7810   15.4910 C   0  0  0  0  0  2  0  0  0  0  0  0
   16.4870   14.0720   14.6380 C   0  0  0  0  0  3  0  0  0  0  0  0
   15.5470   13.0140   14.0490 C   0  0  0  0  0  1  0  0  0  0  0  0
   15.8060   14.7100   15.8560 C   0  0  0  0  0  1  0  0  0  0  0  0
  1 30  1  0
  1  2  1  0
  2  3  1  0
  2  5  1  0
  3  6  1  0
  4  3  2  0
  6 11  2  0
  6 10  1  0
  7 12  1  0
  8  7  1  0
  9  7  2  0
 10  8  2  0
 11  9  1  0
 12 13  1  0
 14  1  1  0
 14 15  2  0
 16 14  1  0
 17 16  1  0
 18 16  1  0
 19 20  1  0
 19 18  1  0
 20 22  2  0
 21 23  2  0
 21 20  1  0
 22 24  1  0
 23 25  1  0
 24 26  1  0
 25 27  1  0
 25 24  2  0
 26 28  1  0
 27 29  1  0
 29 28  1  0
 30 32  1  0
 31 30  1  0
M  RAD  8   8   2   9   2  10   2  11   2  13   2  18   3  19   3  21   2
M  RAD  7  22   2  23   2  28   3  29   3  30   2  31   2  32   2
M  END
>  <vina_score>  (4) 
-6.4299999999999997

>  <pose_id>  (4) 
4

$$$$

     RDKit          3D

 32 34  0  0  1  0  0  0  0  0999 V2000
   23.2200   10.6430   16.3370 C   0  0  0  0  0  0  0  0  0  0  0  0
   22.0760   10.8740   17.2260 N   0  0  0  0  0  0  0  0  0  0  0  0
   22.1110   10.5120   18.5530 C   0  0  0  0  0  0  0  0  0  0  0  0
   23.0720    9.9410   19.0610 O   0  0  0  0  0  0  0  0  0  0  0  0
   21.3220   11.4450   16.8720 H   0  0  0  0  0  0  0  0  0  0  0  0
   20.9170   10.8490   19.3730 C   0  0  0  0  0  0  0  0  0  0  0  0
   18.7170   11.4680   21.0070 C   0  0  0  0  0  0  0  0  0  0  0  0
   18.6190   11.5930   19.6190 C   0  0  0  0  0  3  0  0  0  0  0  0
   19.9220   11.0460   21.5720 C   0  0  0  0  0  3  0  0  0  0  0  0
   19.7170   11.2860   18.8020 C   0  0  0  0  0  3  0  0  0  0  0  0
   21.0220   10.7440   20.7640 C   0  0  0  0  0  3  0  0  0  0  0  0
   17.7250   11.7270   21.9110 O   0  0  0  0  0  0  0  0  0  0  0  0
   18.0740   11.6570   23.2880 C   0  0  0  0  0  1  0  0  0  0  0  0
   23.2410   11.8310   15.3440 C   0  0  0  0  0  0  0  0  0  0  0  0
   24.2730   12.3310   14.9040 O   0  0  0  0  0  0  0  0  0  0  0  0
   21.9810   12.2270   14.9400 N   0  0  0  0  0  0  0  0  0  0  0  0
   21.1950   11.6280   15.2040 H   0  0  0  0  0  0  0  0  0  0  0  0
   21.7640   13.2720   13.9620 C   0  0  0  0  0  2  0  0  0  0  0  0
   20.5830   12.9490   13.0460 C   0  0  0  0  0  2  0  0  0  0  0  0
   19.4300   13.9010   13.2490 C   0  0  0  0  0  0  0  0  0  0  0  0
   18.9120   14.6310   12.1690 C   0  0  0  0  0  3  0  0  0  0  0  0
   18.8550   14.0580   14.5190 C   0  0  0  0  0  3  0  0  0  0  0  0
   17.8390   15.5060   12.3530 C   0  0  0  0  0  3  0  0  0  0  0  0
   17.7900   14.9390   14.7040 C   0  0  0  0  0  0  0  0  0  0  0  0
   17.2700   15.6500   13.6170 C   0  0  0  0  0  0  0  0  0  0  0  0
   17.3010   15.0540   15.9790 O   0  0  0  0  0  0  0  0  0  0  0  0
   16.2100   16.5150   13.7210 O   0  0  0  0  0  0  0  0  0  0  0  0
   16.4750   16.2150   16.1190 C   0  0  0  0  0  2  0  0  0  0  0  0
   15.5040   16.3270   14.9530 C   0  0  0  0  0  2  0  0  0  0  0  0
   23.1110    9.2760   15.6240 C   0  0  0  0  0  3  0  0  0  0  0  0
   24.0830    8.2550   16.2310 C   0  0  0  0  0  1  0  0  0  0  0  0
   21.6880    8.7090   15.7120 C   0  0  0  0  0  1  0  0  0  0  0  0
  1 14  1  0
  1  2  1  0
  2  3  1  0
  3  4  2  0
  3  6  1  0
  5  2  1  0
  6 11  2  0
  7  9  2  0
  7 12  1  0
  8  7  1  0
 10  6  1  0
 10  8  2  0
 11  9  1  0
 12 13  1  0
 15 14  2  0
 16 17  1  0
 16 14  1  0
 18 16  1  0
 19 20  1  0
 19 18  1  0
 20 22  2  0
 21 23  2  0
 21 20  1  0
 22 24  1  0
 23 25  1  0
 24 26  1  0
 25 27  1  0
 25 24  2  0
 26 28  1  0
 27 29  1  0
 29 28  1  0
 30 32  1  0
 30 31  1  0
 30  1  1  0
M  RAD  8   8   2   9   2  10   2  11   2  13   2  18   3  19   3  21   2
M  RAD  7  22   2  23   2  28   3  29   3  30   2  31   2  32   2
M  END
>  <vina_score>  (5) 
-6.3940000000000001

>  <pose_id>  (5) 
5

$$$$
