
     RDKit          3D

 24 25  0  0  0  0  0  0  0  0999 V2000
   17.0310   12.2320   17.2580 C   0  0  0  0  0  2  0  0  0  0  0  0
   17.0450   13.4190   16.3190 C   0  0  0  0  0  0  0  0  0  0  0  0
   15.8190   13.6620   15.7400 N   0  0  0  0  0  0  0  0  0  0  0  0
   18.0490   14.0810   16.0790 O   0  0  0  0  0  0  0  0  0  0  0  0
   15.0370   13.0550   15.9470 H   0  0  0  0  0  0  0  0  0  0  0  0
   15.6250   14.7430   14.7900 C   0  0  0  0  0  2  0  0  0  0  0  0
   15.2390   14.2310   13.4010 C   0  0  0  0  0  2  0  0  0  0  0  0
   16.1710   14.7480   12.3360 C   0  0  0  0  0  0  0  0  0  0  0  0
   17.9260   15.7430   10.3690 C   0  0  0  0  0  0  0  0  0  0  0  0
   16.5410   15.8610   10.2110 C   0  0  0  0  0  3  0  0  0  0  0  0
   18.4280   15.1430   11.5300 C   0  0  0  0  0  3  0  0  0  0  0  0
   15.6700   15.3650   11.1840 C   0  0  0  0  0  3  0  0  0  0  0  0
   17.5580   14.6470   12.5030 C   0  0  0  0  0  3  0  0  0  0  0  0
   18.8610   16.3040    9.3400 C   0  0  0  0  0  1  0  0  0  0  0  0
   17.9760   11.1420   16.7700 C   0  0  0  0  0  2  0  0  0  0  0  0
   19.4310   10.9860   17.8610 S   0  0  0  0  0  0  0  0  0  0  0  0
   18.8150    9.7000   18.9920 C   0  0  0  0  0  2  0  0  0  0  0  0
   18.3830   10.2930   20.3110 C   0  0  0  0  0  0  0  0  0  0  0  0
   19.3360   10.7580   21.2310 C   0  0  0  0  0  3  0  0  0  0  0  0
   17.0220   10.3610   20.6490 C   0  0  0  0  0  3  0  0  0  0  0  0
   18.9350   11.2960   22.4560 C   0  0  0  0  0  3  0  0  0  0  0  0
   16.6230   10.9000   21.8750 C   0  0  0  0  0  3  0  0  0  0  0  0
   17.5810   11.3660   22.7710 C   0  0  0  0  0  0  0  0  0  0  0  0
   17.0880   12.0300   24.2810 Cl  0  0  0  0  0  0  0  0  0  0  0  0
  2  1  1  0
  3  5  1  0
  3  2  1  0
  4  2  2  0
  6  3  1  0
  7  6  1  0
  8 13  2  0
  8  7  1  0
  9 11  2  0
 10  9  1  0
 10 12  2  0
 11 13  1  0
 12  8  1  0
 14  9  1  0
 15  1  1  0
 15 16  1  0
 16 17  1  0
 17 18  1  0
 18 20  2  0
 18 19  1  0
 19 21  2  0
 20 22  1  0
 21 23  1  0
 22 23  2  0
 23 24  1  0
M  RAD  8   1   3   6   3   7   3  10   2  11   2  12   2  13   2  14   2
M  RAD  6  15   3  17   3  19   2  20   2  21   2  22   2
M  END
>  <vina_score>  (1) 
-6.9550000000000001

>  <pose_id>  (1) 
1

$$$$

     RDKit          3D

 24 25  0  0  0  0  0  0  0  0999 V2000
   16.8470   12.0660   16.0280 C   0  0  0  0  0  2  0  0  0  0  0  0
   17.0990   13.4970   15.6060 C   0  0  0  0  0  0  0  0  0  0  0  0
   17.0300   13.6770   14.2420 N   0  0  0  0  0  0  0  0  0  0  0  0
   17.3640   14.3990   16.3940 O   0  0  0  0  0  0  0  0  0  0  0  0
   16.8490   12.8850   13.6400 H   0  0  0  0  0  0  0  0  0  0  0  0
   17.2640   14.9730   13.6310 C   0  0  0  0  0  2  0  0  0  0  0  0
   17.1170   14.9300   12.1080 C   0  0  0  0  0  2  0  0  0  0  0  0
   18.4210   15.2230   11.4130 C   0  0  0  0  0  0  0  0  0  0  0  0
   20.8520   15.7450   10.0870 C   0  0  0  0  0  0  0  0  0  0  0  0
   20.8450   15.1000   11.3280 C   0  0  0  0  0  3  0  0  0  0  0  0
   19.6330   16.1070    9.5030 C   0  0  0  0  0  3  0  0  0  0  0  0
   19.6400   14.8440   11.9880 C   0  0  0  0  0  3  0  0  0  0  0  0
   18.4280   15.8510   10.1620 C   0  0  0  0  0  3  0  0  0  0  0  0
   22.1430   15.9910    9.3640 C   0  0  0  0  0  1  0  0  0  0  0  0
   18.1560   11.3000   16.1640 C   0  0  0  0  0  2  0  0  0  0  0  0
   18.8300   11.4290   17.8560 S   0  0  0  0  0  0  0  0  0  0  0  0
   17.5780   10.4540   18.7460 C   0  0  0  0  0  2  0  0  0  0  0  0
   17.5150   10.8420   20.2030 C   0  0  0  0  0  0  0  0  0  0  0  0
   18.5940   11.5020   20.8130 C   0  0  0  0  0  3  0  0  0  0  0  0
   16.3880   10.5250   20.9770 C   0  0  0  0  0  3  0  0  0  0  0  0
   18.5400   11.8510   22.1640 C   0  0  0  0  0  3  0  0  0  0  0  0
   16.3350   10.8750   22.3280 C   0  0  0  0  0  3  0  0  0  0  0  0
   17.4100   11.5380   22.9150 C   0  0  0  0  0  0  0  0  0  0  0  0
   17.3430   11.9700   24.5790 Cl  0  0  0  0  0  0  0  0  0  0  0  0
  1 15  1  0
  2  1  1  0
  2  4  2  0
  3  2  1  0
  5  3  1  0
  6  3  1  0
  7  6  1  0
  8 12  1  0
  8  7  1  0
  9 10  1  0
 10 12  2  0
 11  9  2  0
 11 13  1  0
 13  8  2  0
 14  9  1  0
 15 16  1  0
 16 17  1  0
 17 18  1  0
 18 19  1  0
 18 20  2  0
 19 21  2  0
 20 22  1  0
 21 23  1  0
 22 23  2  0
 23 24  1  0
M  RAD  8   1   3   6   3   7   3  10   2  11   2  12   2  13   2  14   2
M  RAD  6  15   3  17   3  19   2  20   2  21   2  22   2
M  END
>  <vina_score>  (2) 
-6.7060000000000004

>  <pose_id>  (2) 
2

$$$$

     RDKit          3D

 24 25  0  0  0  0  0  0  0  0999 V2000
   22.4270   10.3770   17.0730 C   0  0  0  0  0  2  0  0  0  0  0  0
   21.7170   10.0430   18.3680 C   0  0  0  0  0  0  0  0  0  0  0  0
   20.6470    9.1940   18.1920 N   0  0  0  0  0  0  0  0  0  0  0  0
   22.0450   10.5010   19.4580 O   0  0  0  0  0  0  0  0  0  0  0  0
   20.4010    8.8820   17.2620 H   0  0  0  0  0  0  0  0  0  0  0  0
   19.8190    8.7690   19.3070 C   0  0  0  0  0  2  0  0  0  0  0  0
   18.4310    9.4100   19.2750 C   0  0  0  0  0  2  0  0  0  0  0  0
   18.1140   10.1200   20.5660 C   0  0  0  0  0  0  0  0  0  0  0  0
   17.5380   11.4200   22.9980 C   0  0  0  0  0  0  0  0  0  0  0  0
   16.5130   10.8400   22.2430 C   0  0  0  0  0  3  0  0  0  0  0  0
   18.8560   11.3260   22.5390 C   0  0  0  0  0  3  0  0  0  0  0  0
   16.7970   10.1980   21.0350 C   0  0  0  0  0  3  0  0  0  0  0  0
   19.1410   10.6850   21.3310 C   0  0  0  0  0  3  0  0  0  0  0  0
   17.2370   12.0800   24.3100 C   0  0  0  0  0  1  0  0  0  0  0  0
   23.4410    9.2990   16.7150 C   0  0  0  0  0  2  0  0  0  0  0  0
   23.7320    9.2320   14.9140 S   0  0  0  0  0  0  0  0  0  0  0  0
   24.9170   10.6040   14.7560 C   0  0  0  0  0  2  0  0  0  0  0  0
   24.6200   11.4480   13.5400 C   0  0  0  0  0  0  0  0  0  0  0  0
   24.5380   10.8610   12.2670 C   0  0  0  0  0  3  0  0  0  0  0  0
   24.4480   12.8350   13.6610 C   0  0  0  0  0  3  0  0  0  0  0  0
   24.2740   11.6440   11.1410 C   0  0  0  0  0  3  0  0  0  0  0  0
   24.1830   13.6180   12.5340 C   0  0  0  0  0  3  0  0  0  0  0  0
   24.0960   13.0180   11.2800 C   0  0  0  0  0  0  0  0  0  0  0  0
   23.7700   13.9820    9.8920 Cl  0  0  0  0  0  0  0  0  0  0  0  0
  1  2  1  0
  2  4  2  0
  3  2  1  0
  3  6  1  0
  5  3  1  0
  7  6  1  0
  7  8  1  0
  8 12  1  0
  8 13  2  0
  9 14  1  0
 10  9  1  0
 11  9  2  0
 12 10  2  0
 13 11  1  0
 15  1  1  0
 16 15  1  0
 17 16  1  0
 18 20  2  0
 18 17  1  0
 19 18  1  0
 21 23  1  0
 21 19  2  0
 22 20  1  0
 23 22  2  0
 24 23  1  0
M  RAD  8   1   3   6   3   7   3  10   2  11   2  12   2  13   2  14   2
M  RAD  6  15   3  17   3  19   2  20   2  21   2  22   2
M  END
>  <vina_score>  (3) 
-6.633

>  <pose_id>  (3) 
3

$$$$

     RDKit          3D

 24 25  0  0  0  0  0  0  0  0999 V2000
   18.4440   15.3530   11.2180 C   0  0  0  0  0  2  0  0  0  0  0  0
   19.8820   15.5390   10.7830 C   0  0  0  0  0  0  0  0  0  0  0  0
   20.7850   15.3170   11.7990 N   0  0  0  0  0  0  0  0  0  0  0  0
   20.2080   15.8780    9.6500 O   0  0  0  0  0  0  0  0  0  0  0  0
   20.4520   15.0790   12.7240 H   0  0  0  0  0  0  0  0  0  0  0  0
   22.2150   15.4650   11.5940 C   0  0  0  0  0  2  0  0  0  0  0  0
   22.8240   14.2630   10.8690 C   0  0  0  0  0  2  0  0  0  0  0  0
   23.4390   13.2820   11.8350 C   0  0  0  0  0  0  0  0  0  0  0  0
   24.5590   11.4270   13.6340 C   0  0  0  0  0  0  0  0  0  0  0  0
   24.0340   12.6380   14.0980 C   0  0  0  0  0  3  0  0  0  0  0  0
   24.4980   11.1400   12.2660 C   0  0  0  0  0  3  0  0  0  0  0  0
   23.4820   13.5600   13.2060 C   0  0  0  0  0  3  0  0  0  0  0  0
   23.9460   12.0620   11.3730 C   0  0  0  0  0  3  0  0  0  0  0  0
   25.1230   10.4230   14.5950 C   0  0  0  0  0  1  0  0  0  0  0  0
   18.3030   15.5350   12.7240 C   0  0  0  0  0  2  0  0  0  0  0  0
   17.7290   14.0010   13.5290 S   0  0  0  0  0  0  0  0  0  0  0  0
   19.0970   13.7550   14.7030 C   0  0  0  0  0  2  0  0  0  0  0  0
   19.8560   12.4850   14.4020 C   0  0  0  0  0  0  0  0  0  0  0  0
   20.0300   12.0560   13.0770 C   0  0  0  0  0  3  0  0  0  0  0  0
   20.3740   11.7020   15.4450 C   0  0  0  0  0  3  0  0  0  0  0  0
   20.7230   10.8750   12.8000 C   0  0  0  0  0  3  0  0  0  0  0  0
   21.0680   10.5210   15.1660 C   0  0  0  0  0  3  0  0  0  0  0  0
   21.2390   10.1140   13.8460 C   0  0  0  0  0  0  0  0  0  0  0  0
   22.0940    8.6600   13.5030 Cl  0  0  0  0  0  0  0  0  0  0  0  0
  1 15  1  0
  2  1  1  0
  2  3  1  0
  3  5  1  0
  4  2  2  0
  6  3  1  0
  7  6  1  0
  7  8  1  0
  8 12  1  0
  9 10  1  0
  9 14  1  0
 11  9  2  0
 12 10  2  0
 13  8  2  0
 13 11  1  0
 15 16  1  0
 16 17  1  0
 18 17  1  0
 18 20  2  0
 19 18  1  0
 21 19  2  0
 21 23  1  0
 22 20  1  0
 23 22  2  0
 24 23  1  0
M  RAD  8   1   3   6   3   7   3  10   2  11   2  12   2  13   2  14   2
M  RAD  6  15   3  17   3  19   2  20   2  21   2  22   2
M  END
>  <vina_score>  (4) 
-6.6289999999999996

>  <pose_id>  (4) 
4

$$$$

     RDKit          3D

 24 25  0  0  0  0  0  0  0  0999 V2000
   22.0010   10.5490   16.6600 C   0  0  0  0  0  2  0  0  0  0  0  0
   21.4220   10.8600   15.2960 C   0  0  0  0  0  0  0  0  0  0  0  0
   21.0060   12.1670   15.1720 N   0  0  0  0  0  0  0  0  0  0  0  0
   21.3110   10.0290   14.4020 O   0  0  0  0  0  0  0  0  0  0  0  0
   21.0870   12.7970   15.9600 H   0  0  0  0  0  0  0  0  0  0  0  0
   20.4000   12.6630   13.9490 C   0  0  0  0  0  2  0  0  0  0  0  0
   20.8600   14.0820   13.6100 C   0  0  0  0  0  2  0  0  0  0  0  0
   20.0320   14.6880   12.5050 C   0  0  0  0  0  0  0  0  0  0  0  0
   18.4720   15.7860   10.4320 C   0  0  0  0  0  0  0  0  0  0  0  0
   19.8660   15.7390   10.3230 C   0  0  0  0  0  3  0  0  0  0  0  0
   17.8620   15.2580   11.5750 C   0  0  0  0  0  3  0  0  0  0  0  0
   20.6410   15.1980   11.3530 C   0  0  0  0  0  3  0  0  0  0  0  0
   18.6360   14.7170   12.6050 C   0  0  0  0  0  3  0  0  0  0  0  0
   17.6400   16.3370    9.3130 C   0  0  0  0  0  1  0  0  0  0  0  0
   23.2100    9.6310   16.5410 C   0  0  0  0  0  2  0  0  0  0  0  0
   24.6840   10.5430   15.9680 S   0  0  0  0  0  0  0  0  0  0  0  0
   24.8320    9.8420   14.2950 C   0  0  0  0  0  2  0  0  0  0  0  0
   24.5950   10.8920   13.2370 C   0  0  0  0  0  0  0  0  0  0  0  0
   24.4570   12.2430   13.5920 C   0  0  0  0  0  3  0  0  0  0  0  0
   24.4820   10.5290   11.8860 C   0  0  0  0  0  3  0  0  0  0  0  0
   24.2260   13.2130   12.6140 C   0  0  0  0  0  3  0  0  0  0  0  0
   24.2530   11.5000   10.9090 C   0  0  0  0  0  3  0  0  0  0  0  0
   24.1270   12.8370   11.2770 C   0  0  0  0  0  0  0  0  0  0  0  0
   23.8440   14.0330   10.0720 Cl  0  0  0  0  0  0  0  0  0  0  0  0
  2  1  1  0
  3  2  1  0
  3  5  1  0
  4  2  2  0
  6  3  1  0
  7  6  1  0
  8 13  2  0
  8  7  1  0
  9 11  2  0
 10  9  1  0
 10 12  2  0
 11 13  1  0
 12  8  1  0
 14  9  1  0
 15  1  1  0
 16 15  1  0
 17 16  1  0
 18 19  1  0
 18 17  1  0
 20 18  2  0
 21 19  2  0
 22 23  2  0
 22 20  1  0
 23 21  1  0
 24 23  1  0
M  RAD  8   1   3   6   3   7   3  10   2  11   2  12   2  13   2  14   2
M  RAD  6  15   3  17   3  19   2  20   2  21   2  22   2
M  END
>  <vina_score>  (5) 
-6.6200000000000001

>  <pose_id>  (5) 
5

$$$$
