
     RDKit          3D

 21 22  0  0  0  0  0  0  0  0999 V2000
   18.8350   13.4320   15.3410 O   0  0  0  0  0  0  0  0  0  0  0  0
   19.5060   14.5520   14.7360 S   0  0  2  0  0  0  0  0  0  0  0  0
   19.4890   15.8780   15.2980 O   0  0  0  0  0  0  0  0  0  0  0  0
   19.0380   14.6950   13.1550 N   0  0  0  0  0  0  0  0  0  0  0  0
   19.5350   14.0460   12.5500 H   0  0  0  0  0  0  0  0  0  0  0  0
   17.6240   14.8750   12.8600 C   0  0  0  0  0  2  0  0  0  0  0  0
   17.5220   15.4360   11.4740 C   0  0  0  0  0  0  0  0  0  0  0  0
   18.5450   15.7020   10.5820 C   0  0  0  0  0  3  0  0  0  0  0  0
   15.9930   15.8270   10.8050 S   0  0  0  0  0  0  0  0  0  0  0  0
   18.0680   16.2330    9.3500 C   0  0  0  0  0  3  0  0  0  0  0  0
   16.6970   16.3540    9.3380 C   0  0  0  0  0  3  0  0  0  0  0  0
   21.1160   14.1810   14.5120 N   0  0  0  0  0  0  0  0  0  0  0  0
   21.1900   13.1770   14.3380 H   0  0  0  0  0  0  0  0  0  0  0  0
   21.8340   14.9640   13.4850 C   0  0  0  0  0  2  0  0  0  0  0  0
   22.7350   14.0960   12.6440 C   0  0  0  0  0  0  0  0  0  0  0  0
   23.5890   13.1420   13.2200 C   0  0  0  0  0  3  0  0  0  0  0  0
   22.7850   14.2790   11.2600 C   0  0  0  0  0  0  0  0  0  0  0  0
   24.4430   12.3780   12.4190 C   0  0  0  0  0  3  0  0  0  0  0  0
   23.6330   13.5220   10.4560 C   0  0  0  0  0  3  0  0  0  0  0  0
   24.4630   12.5660   11.0370 C   0  0  0  0  0  3  0  0  0  0  0  0
   22.0060   15.2040   10.6800 F   0  0  0  0  0  0  0  0  0  0  0  0
  2  3  2  0
  2  1  2  0
  2  4  1  6
  5  4  1  0
  6  4  1  0
  7  6  1  0
  8  7  2  0
  9  7  1  0
 10  8  1  0
 11 10  2  0
 11  9  1  0
 12  2  1  0
 13 12  1  0
 14 12  1  0
 15 16  2  0
 15 14  1  0
 17 15  1  0
 18 16  1  0
 19 20  1  0
 19 17  2  0
 20 18  2  0
 21 17  1  0
M  RAD  8   6   3   8   2  10   2  11   2  14   3  16   2  18   2  19   2
M  RAD  1  20   2
M  END
>  <vina_score>  (1) 
-5.9640000000000004

>  <pose_id>  (1) 
1

$$$$

     RDKit          3D

 21 22  0  0  0  0  0  0  0  0999 V2000
   16.6560   11.8900   16.6420 O   0  0  0  0  0  0  0  0  0  0  0  0
   17.8510   12.6420   16.3630 S   0  0  2  0  0  0  0  0  0  0  0  0
   18.7180   12.3580   15.2480 O   0  0  0  0  0  0  0  0  0  0  0  0
   18.8070   12.6920   17.7130 N   0  0  0  0  0  0  0  0  0  0  0  0
   18.4000   13.2650   18.4480 H   0  0  0  0  0  0  0  0  0  0  0  0
   19.4530   11.4640   18.1550 C   0  0  0  0  0  2  0  0  0  0  0  0
   19.1980   11.3280   19.6260 C   0  0  0  0  0  0  0  0  0  0  0  0
   17.9910   11.4140   20.2960 C   0  0  0  0  0  3  0  0  0  0  0  0
   20.4920   11.0180   20.7070 S   0  0  0  0  0  0  0  0  0  0  0  0
   18.1350   11.2290   21.7010 C   0  0  0  0  0  3  0  0  0  0  0  0
   19.4450   11.0060   22.0590 C   0  0  0  0  0  3  0  0  0  0  0  0
   17.4730   14.2610   16.2360 N   0  0  0  0  0  0  0  0  0  0  0  0
   18.1410   14.6940   15.5940 H   0  0  0  0  0  0  0  0  0  0  0  0
   16.0800   14.5830   15.8670 C   0  0  0  0  0  2  0  0  0  0  0  0
   15.9280   14.8150   14.3850 C   0  0  0  0  0  0  0  0  0  0  0  0
   16.3560   16.0050   13.7770 C   0  0  0  0  0  3  0  0  0  0  0  0
   15.2870   13.8590   13.5920 C   0  0  0  0  0  0  0  0  0  0  0  0
   16.1680   16.2100   12.4060 C   0  0  0  0  0  3  0  0  0  0  0  0
   15.0970   14.0560   12.2270 C   0  0  0  0  0  3  0  0  0  0  0  0
   15.5410   15.2350   11.6310 C   0  0  0  0  0  3  0  0  0  0  0  0
   14.8390   12.7240   14.1470 F   0  0  0  0  0  0  0  0  0  0  0  0
  2  1  2  0
  2  4  1  1
  3  2  2  0
  4  6  1  0
  4  5  1  0
  6  7  1  0
  7  8  2  0
  7  9  1  0
  8 10  1  0
  9 11  1  0
 10 11  2  0
 12  2  1  0
 13 12  1  0
 14 12  1  0
 15 14  1  0
 16 15  2  0
 17 21  1  0
 17 15  1  0
 18 16  1  0
 19 17  2  0
 20 19  1  0
 20 18  2  0
M  RAD  8   6   3   8   2  10   2  11   2  14   3  16   2  18   2  19   2
M  RAD  1  20   2
M  END
>  <vina_score>  (2) 
-5.8289999999999997

>  <pose_id>  (2) 
2

$$$$

     RDKit          3D

 21 22  0  0  0  0  0  0  0  0999 V2000
   18.3150   12.6890   17.6730 O   0  0  0  0  0  0  0  0  0  0  0  0
   18.1080   13.0210   16.2870 S   0  0  2  0  0  0  0  0  0  0  0  0
   17.4420   12.1450   15.3580 O   0  0  0  0  0  0  0  0  0  0  0  0
   19.5490   13.4500   15.5950 N   0  0  0  0  0  0  0  0  0  0  0  0
   20.2460   13.7030   16.2900 H   0  0  0  0  0  0  0  0  0  0  0  0
   20.0380   12.6710   14.4650 C   0  0  0  0  0  2  0  0  0  0  0  0
   20.1770   13.6070   13.3030 C   0  0  0  0  0  0  0  0  0  0  0  0
   19.1750   14.2080   12.5640 C   0  0  0  0  0  3  0  0  0  0  0  0
   21.7300   14.0650   12.7380 S   0  0  0  0  0  0  0  0  0  0  0  0
   19.6880   15.0410   11.5290 C   0  0  0  0  0  3  0  0  0  0  0  0
   21.0640   15.0520   11.5110 C   0  0  0  0  0  3  0  0  0  0  0  0
   17.3090   14.4810   16.1790 N   0  0  0  0  0  0  0  0  0  0  0  0
   17.8900   15.1230   15.6360 H   0  0  0  0  0  0  0  0  0  0  0  0
   15.9250   14.4350   15.6630 C   0  0  0  0  0  2  0  0  0  0  0  0
   15.8520   14.8290   14.2100 C   0  0  0  0  0  0  0  0  0  0  0  0
   16.3280   16.0690   13.7570 C   0  0  0  0  0  3  0  0  0  0  0  0
   15.2360   13.9790   13.2870 C   0  0  0  0  0  0  0  0  0  0  0  0
   16.2130   16.4250   12.4100 C   0  0  0  0  0  3  0  0  0  0  0  0
   15.1180   14.3260   11.9450 C   0  0  0  0  0  3  0  0  0  0  0  0
   15.6100   15.5530   11.5040 C   0  0  0  0  0  3  0  0  0  0  0  0
   14.7430   12.8000   13.6920 F   0  0  0  0  0  0  0  0  0  0  0  0
  2  1  2  0
  3  2  2  0
  2  4  1  6
  4  5  1  0
  6  4  1  0
  7  6  1  0
  8  7  2  0
  9  7  1  0
 10  8  1  0
 11 10  2  0
 11  9  1  0
 12  2  1  0
 13 12  1  0
 14 12  1  0
 15 14  1  0
 16 15  2  0
 17 21  1  0
 17 15  1  0
 18 16  1  0
 19 17  2  0
 20 19  1  0
 20 18  2  0
M  RAD  8   6   3   8   2  10   2  11   2  14   3  16   2  18   2  19   2
M  RAD  1  20   2
M  END
>  <vina_score>  (3) 
-5.8120000000000003

>  <pose_id>  (3) 
3

$$$$

     RDKit          3D

 21 22  0  0  0  0  0  0  0  0999 V2000
   17.5200   16.5010   15.5510 O   0  0  0  0  0  0  0  0  0  0  0  0
   16.3870   15.6500   15.2920 S   0  0  2  0  0  0  0  0  0  0  0  0
   15.2510   15.5640   16.1730 O   0  0  0  0  0  0  0  0  0  0  0  0
   16.9020   14.1020   15.0200 N   0  0  0  0  0  0  0  0  0  0  0  0
   16.4420   13.6830   14.2150 H   0  0  0  0  0  0  0  0  0  0  0  0
   18.3210   13.8040   15.1600 C   0  0  0  0  0  2  0  0  0  0  0  0
   18.5970   12.5570   14.3760 C   0  0  0  0  0  0  0  0  0  0  0  0
   19.7370   12.2290   13.6650 C   0  0  0  0  0  3  0  0  0  0  0  0
   17.4250   11.3100   14.2870 S   0  0  0  0  0  0  0  0  0  0  0  0
   19.6410   10.9520   13.0430 C   0  0  0  0  0  3  0  0  0  0  0  0
   18.4330   10.3440   13.2990 C   0  0  0  0  0  3  0  0  0  0  0  0
   15.7610   16.0000   13.7870 N   0  0  0  0  0  0  0  0  0  0  0  0
   16.1970   16.8620   13.4530 H   0  0  0  0  0  0  0  0  0  0  0  0
   15.8420   14.9250   12.7760 C   0  0  0  0  0  2  0  0  0  0  0  0
   16.6660   15.3360   11.5830 C   0  0  0  0  0  0  0  0  0  0  0  0
   18.0670   15.2420   11.5860 C   0  0  0  0  0  3  0  0  0  0  0  0
   16.0420   15.8890   10.4620 C   0  0  0  0  0  0  0  0  0  0  0  0
   18.8100   15.6660   10.4800 C   0  0  0  0  0  3  0  0  0  0  0  0
   16.7750   16.3140    9.3570 C   0  0  0  0  0  3  0  0  0  0  0  0
   18.1640   16.2000    9.3650 C   0  0  0  0  0  3  0  0  0  0  0  0
   14.7080   16.0220   10.4380 F   0  0  0  0  0  0  0  0  0  0  0  0
  2  1  2  0
  2  3  2  0
  4  6  1  0
  2  4  1  6
  5  4  1  0
  7  6  1  0
  8  7  2  0
  9  7  1  0
 10 11  2  0
 10  8  1  0
 11  9  1  0
 12  2  1  0
 13 12  1  0
 14 12  1  0
 15 16  2  0
 15 14  1  0
 17 15  1  0
 18 16  1  0
 19 20  1  0
 19 17  2  0
 20 18  2  0
 21 17  1  0
M  RAD  8   6   3   8   2  10   2  11   2  14   3  16   2  18   2  19   2
M  RAD  1  20   2
M  END
>  <vina_score>  (4) 
-5.8010000000000002

>  <pose_id>  (4) 
4

$$$$
