
     RDKit          3D

 32 34  0  0  0  0  0  0  0  0999 V2000
   18.8160   11.2950   16.6760 C   0  0  0  0  0  0  0  0  0  0  0  0
   18.2190   10.2260   16.7590 O   0  0  0  0  0  0  0  0  0  0  0  0
   20.1000   11.4950   17.1280 N   0  0  0  0  0  0  0  0  0  0  0  0
   20.3100   12.4640   17.3600 H   0  0  0  0  0  0  0  0  0  0  0  0
   18.1750   12.4860   16.0020 C   0  0  0  0  0  0  0  0  0  0  0  0
   17.0660   12.9080   16.6390 C   0  0  0  0  0  3  0  0  0  0  0  0
   18.7170   13.1510   14.9100 N   0  0  0  0  0  0  0  0  0  0  0  0
   18.8690   12.7250   13.6060 C   0  0  0  0  0  0  0  0  0  0  0  0
   18.3140   11.7540   13.1050 O   0  0  0  0  0  0  0  0  0  0  0  0
   19.0780   14.0710   15.1150 H   0  0  0  0  0  0  0  0  0  0  0  0
   19.7180   13.6010   12.7480 C   0  0  0  0  0  0  0  0  0  0  0  0
   21.3770   15.2320   11.1680 C   0  0  0  0  0  0  0  0  0  0  0  0
   19.9820   15.4230   11.1820 C   0  0  0  0  0  3  0  0  0  0  0  0
   21.9460   14.2170   11.9640 C   0  0  0  0  0  0  0  0  0  0  0  0
   19.1560   14.6180   11.9680 C   0  0  0  0  0  3  0  0  0  0  0  0
   21.1080   13.4160   12.7580 C   0  0  0  0  0  3  0  0  0  0  0  0
   22.2340   16.1310   10.3170 C   0  0  0  0  0  1  0  0  0  0  0  0
   23.4370   14.0010   12.0190 C   0  0  0  0  0  1  0  0  0  0  0  0
   16.2350   13.9890   16.2300 C   0  0  0  0  0  0  0  0  0  0  0  0
   15.5040   14.9170   16.9670 C   0  0  0  0  0  3  0  0  0  0  0  0
   16.0800   14.3200   14.9020 O   0  0  0  0  0  0  0  0  0  0  0  0
   14.8550   15.7890   16.0600 C   0  0  0  0  0  3  0  0  0  0  0  0
   15.2500   15.3870   14.8110 C   0  0  0  0  0  3  0  0  0  0  0  0
   20.7660   10.5100   17.9610 C   0  0  0  0  0  2  0  0  0  0  0  0
   20.7810   10.9530   19.4260 C   0  0  0  0  0  2  0  0  0  0  0  0
   19.6350   10.3510   20.2490 C   0  0  0  0  0  2  0  0  0  0  0  0
   18.7750   11.3350   20.9170 N   0  0  0  0  0  0  0  0  0  0  0  0
   18.9490   11.2700   22.3850 C   0  0  0  0  0  2  0  0  0  0  0  0
   17.3430   11.2430   20.5500 C   0  0  0  0  0  2  0  0  0  0  0  0
   17.7650   11.9140   23.1240 C   0  0  0  0  0  2  0  0  0  0  0  0
   16.4760   10.5590   21.6220 C   0  0  0  0  0  2  0  0  0  0  0  0
   16.5360   11.2050   22.9060 O   0  0  0  0  0  0  0  0  0  0  0  0
  1  2  2  0
  1  3  1  0
  3  4  1  0
  3 24  1  0
  5  6  2  0
  5  1  1  0
  7 10  1  0
  7  5  1  0
  8  7  1  0
  9  8  2  0
 11 16  2  0
 11  8  1  0
 12 13  1  0
 12 14  2  0
 13 15  2  0
 14 18  1  0
 14 16  1  0
 15 11  1  0
 17 12  1  0
 19  6  1  0
 19 20  2  0
 21 19  1  0
 22 20  1  0
 23 21  1  0
 23 22  2  0
 24 25  1  0
 25 26  1  0
 26 27  1  0
 27 28  1  0
 28 30  1  0
 29 27  1  0
 29 31  1  0
 31 32  1  0
 32 30  1  0
M  RAD  8   6   2  13   2  15   2  16   2  17   2  18   2  20   2  22   2
M  RAD  8  23   2  24   3  25   3  26   3  28   3  29   3  30   3  31   3
M  END
>  <vina_score>  (1) 
-7.5830000000000002

>  <pose_id>  (1) 
1

$$$$

     RDKit          3D

 32 34  0  0  0  0  0  0  0  0999 V2000
   23.9130   12.0340   15.5990 C   0  0  0  0  0  0  0  0  0  0  0  0
   24.9930   12.4210   16.0380 O   0  0  0  0  0  0  0  0  0  0  0  0
   23.1500   11.0560   16.1920 N   0  0  0  0  0  0  0  0  0  0  0  0
   22.5260   10.5720   15.5480 H   0  0  0  0  0  0  0  0  0  0  0  0
   23.3110   12.6670   14.3660 C   0  0  0  0  0  0  0  0  0  0  0  0
   24.1930   12.7740   13.3540 C   0  0  0  0  0  3  0  0  0  0  0  0
   21.9700   13.0050   14.2370 N   0  0  0  0  0  0  0  0  0  0  0  0
   20.8840   12.2010   13.9550 C   0  0  0  0  0  0  0  0  0  0  0  0
   20.8670   10.9780   14.0150 O   0  0  0  0  0  0  0  0  0  0  0  0
   21.7740   13.9900   14.3360 H   0  0  0  0  0  0  0  0  0  0  0  0
   19.6210   12.9310   13.6420 C   0  0  0  0  0  0  0  0  0  0  0  0
   17.2030   14.2500   13.0740 C   0  0  0  0  0  0  0  0  0  0  0  0
   18.4150   14.6940   12.5100 C   0  0  0  0  0  3  0  0  0  0  0  0
   17.2050   13.1260   13.9240 C   0  0  0  0  0  0  0  0  0  0  0  0
   19.6160   14.0390   12.7860 C   0  0  0  0  0  3  0  0  0  0  0  0
   18.4170   12.4680   14.1910 C   0  0  0  0  0  3  0  0  0  0  0  0
   15.9270   14.9760   12.7390 C   0  0  0  0  0  1  0  0  0  0  0  0
   15.9280   12.5840   14.5170 C   0  0  0  0  0  1  0  0  0  0  0  0
   23.9280   13.3490   12.0790 C   0  0  0  0  0  0  0  0  0  0  0  0
   24.4440   13.0650   10.8170 C   0  0  0  0  0  3  0  0  0  0  0  0
   22.9770   14.3310   11.9130 O   0  0  0  0  0  0  0  0  0  0  0  0
   23.8280   13.9330    9.8830 C   0  0  0  0  0  3  0  0  0  0  0  0
   22.9310   14.6780   10.6030 C   0  0  0  0  0  3  0  0  0  0  0  0
   23.6800   10.2320   17.2620 C   0  0  0  0  0  2  0  0  0  0  0  0
   22.6460   10.0470   18.3750 C   0  0  0  0  0  2  0  0  0  0  0  0
   21.2430   10.5260   17.9780 C   0  0  0  0  0  2  0  0  0  0  0  0
   20.3660   10.8590   19.1060 N   0  0  0  0  0  0  0  0  0  0  0  0
   21.1470   10.9880   20.3560 C   0  0  0  0  0  2  0  0  0  0  0  0
   19.2280    9.9280   19.2900 C   0  0  0  0  0  2  0  0  0  0  0  0
   20.2520   10.8600   21.5990 C   0  0  0  0  0  2  0  0  0  0  0  0
   19.4300    8.9270   20.4410 C   0  0  0  0  0  2  0  0  0  0  0  0
   19.6620    9.5560   21.7140 O   0  0  0  0  0  0  0  0  0  0  0  0
  1  2  2  0
  1  3  1  0
  3 24  1  0
  4  3  1  0
  5  1  1  0
  6  5  2  0
  7 10  1  0
  7  5  1  0
  8  9  2  0
  8  7  1  0
 11  8  1  0
 11 16  2  0
 12 14  2  0
 13 15  2  0
 13 12  1  0
 14 16  1  0
 14 18  1  0
 15 11  1  0
 17 12  1  0
 19  6  1  0
 20 19  2  0
 21 19  1  0
 22 23  2  0
 22 20  1  0
 23 21  1  0
 24 25  1  0
 26 25  1  0
 26 27  1  0
 27 29  1  0
 27 28  1  0
 28 30  1  0
 29 31  1  0
 30 32  1  0
 31 32  1  0
M  RAD  8   6   2  13   2  15   2  16   2  17   2  18   2  20   2  22   2
M  RAD  8  23   2  24   3  25   3  26   3  28   3  29   3  30   3  31   3
M  END
>  <vina_score>  (2) 
-7.5709999999999997

>  <pose_id>  (2) 
2

$$$$

     RDKit          3D

 32 34  0  0  0  0  0  0  0  0999 V2000
   19.3600   11.3080   16.1010 C   0  0  0  0  0  0  0  0  0  0  0  0
   19.2060   10.2790   15.4480 O   0  0  0  0  0  0  0  0  0  0  0  0
   20.1940   11.4080   17.1900 N   0  0  0  0  0  0  0  0  0  0  0  0
   19.9320   12.1430   17.8440 H   0  0  0  0  0  0  0  0  0  0  0  0
   18.6570   12.5850   15.7040 C   0  0  0  0  0  0  0  0  0  0  0  0
   17.6880   12.9350   16.5710 C   0  0  0  0  0  3  0  0  0  0  0  0
   19.0310   13.3810   14.6290 N   0  0  0  0  0  0  0  0  0  0  0  0
   18.5090   13.4350   13.3520 C   0  0  0  0  0  0  0  0  0  0  0  0
   17.4370   12.9600   12.9990 O   0  0  0  0  0  0  0  0  0  0  0  0
   19.8190   13.9850   14.8070 H   0  0  0  0  0  0  0  0  0  0  0  0
   19.3120   14.2260   12.3740 C   0  0  0  0  0  0  0  0  0  0  0  0
   20.8820   15.7000   10.5670 C   0  0  0  0  0  0  0  0  0  0  0  0
   19.4880   15.8860   10.6260 C   0  0  0  0  0  3  0  0  0  0  0  0
   21.4960   14.7700   11.4320 C   0  0  0  0  0  0  0  0  0  0  0  0
   18.7050   15.1590   11.5240 C   0  0  0  0  0  3  0  0  0  0  0  0
   20.7010   14.0480   12.3380 C   0  0  0  0  0  3  0  0  0  0  0  0
   21.6920   16.5150    9.5920 C   0  0  0  0  0  1  0  0  0  0  0  0
   22.9900   14.5670   11.4390 C   0  0  0  0  0  1  0  0  0  0  0  0
   16.8380   14.0710   16.4510 C   0  0  0  0  0  0  0  0  0  0  0  0
   15.4830   14.2380   16.7250 C   0  0  0  0  0  3  0  0  0  0  0  0
   17.3220   15.2980   16.0590 O   0  0  0  0  0  0  0  0  0  0  0  0
   15.1370   15.5810   16.4400 C   0  0  0  0  0  3  0  0  0  0  0  0
   16.3010   16.1880   16.0460 C   0  0  0  0  0  3  0  0  0  0  0  0
   20.7820   10.2290   17.7990 C   0  0  0  0  0  2  0  0  0  0  0  0
   22.3080   10.2620   17.6930 C   0  0  0  0  0  2  0  0  0  0  0  0
   22.8280    9.7750   16.3340 C   0  0  0  0  0  2  0  0  0  0  0  0
   22.7090   10.7520   15.2450 N   0  0  0  0  0  0  0  0  0  0  0  0
   22.8100   10.0840   13.9290 C   0  0  0  0  0  2  0  0  0  0  0  0
   23.6580   11.8850   15.3360 C   0  0  0  0  0  2  0  0  0  0  0  0
   23.1650   11.0800   12.8140 C   0  0  0  0  0  2  0  0  0  0  0  0
   24.8530   11.7660   14.3730 C   0  0  0  0  0  2  0  0  0  0  0  0
   24.4680   11.6550   12.9920 O   0  0  0  0  0  0  0  0  0  0  0  0
  1  3  1  0
  2  1  2  0
  3 24  1  0
  3  4  1  0
  5  1  1  0
  5  6  2  0
  7 10  1  0
  7  5  1  0
  8  7  1  0
  9  8  2  0
 11  8  1  0
 12 13  1  0
 12 14  2  0
 13 15  2  0
 14 18  1  0
 14 16  1  0
 15 11  1  0
 16 11  2  0
 17 12  1  0
 19  6  1  0
 19 20  2  0
 21 19  1  0
 22 20  1  0
 23 21  1  0
 23 22  2  0
 25 24  1  0
 26 25  1  0
 27 29  1  0
 27 26  1  0
 28 27  1  0
 30 32  1  0
 30 28  1  0
 31 29  1  0
 32 31  1  0
M  RAD  8   6   2  13   2  15   2  16   2  17   2  18   2  20   2  22   2
M  RAD  8  23   2  24   3  25   3  26   3  28   3  29   3  30   3  31   3
M  END
>  <vina_score>  (3) 
-7.556

>  <pose_id>  (3) 
3

$$$$

     RDKit          3D

 32 34  0  0  0  0  0  0  0  0999 V2000
   16.9900   14.1950   15.7410 C   0  0  0  0  0  0  0  0  0  0  0  0
   16.7240   15.1410   16.4780 O   0  0  0  0  0  0  0  0  0  0  0  0
   16.8040   12.8770   16.0870 N   0  0  0  0  0  0  0  0  0  0  0  0
   17.4100   12.2290   15.5860 H   0  0  0  0  0  0  0  0  0  0  0  0
   17.5110   14.4300   14.3430 C   0  0  0  0  0  0  0  0  0  0  0  0
   16.6180   15.0600   13.5560 C   0  0  0  0  0  3  0  0  0  0  0  0
   18.8030   14.1360   13.9300 N   0  0  0  0  0  0  0  0  0  0  0  0
   19.9970   14.7320   14.2840 C   0  0  0  0  0  0  0  0  0  0  0  0
   20.1640   15.4820   15.2380 O   0  0  0  0  0  0  0  0  0  0  0  0
   18.8690   13.3950   13.2480 H   0  0  0  0  0  0  0  0  0  0  0  0
   21.1750   14.3300   13.4610 C   0  0  0  0  0  0  0  0  0  0  0  0
   23.4270   13.5500   11.9690 C   0  0  0  0  0  0  0  0  0  0  0  0
   22.4790   14.4400   11.4290 C   0  0  0  0  0  3  0  0  0  0  0  0
   23.2460   13.0540   13.2770 C   0  0  0  0  0  0  0  0  0  0  0  0
   21.3620   14.8330   12.1680 C   0  0  0  0  0  3  0  0  0  0  0  0
   22.1230   13.4600   14.0160 C   0  0  0  0  0  3  0  0  0  0  0  0
   24.6250   13.1620   11.1440 C   0  0  0  0  0  1  0  0  0  0  0  0
   24.2550   12.1330   13.9170 C   0  0  0  0  0  1  0  0  0  0  0  0
   16.8090   15.3950   12.1850 C   0  0  0  0  0  0  0  0  0  0  0  0
   15.9060   15.7800   11.1980 C   0  0  0  0  0  3  0  0  0  0  0  0
   18.0640   15.4380   11.6200 O   0  0  0  0  0  0  0  0  0  0  0  0
   16.6290   16.0070   10.0020 C   0  0  0  0  0  3  0  0  0  0  0  0
   17.9450   15.7940   10.3180 C   0  0  0  0  0  3  0  0  0  0  0  0
   16.4960   12.4930   17.4520 C   0  0  0  0  0  2  0  0  0  0  0  0
   17.4600   11.4120   17.9470 C   0  0  0  0  0  2  0  0  0  0  0  0
   18.8420   11.9630   18.3200 C   0  0  0  0  0  2  0  0  0  0  0  0
   19.1820   11.8570   19.7440 N   0  0  0  0  0  0  0  0  0  0  0  0
   20.5330   11.2790   19.9180 C   0  0  0  0  0  2  0  0  0  0  0  0
   18.1850   11.1210   20.5560 C   0  0  0  0  0  2  0  0  0  0  0  0
   20.7310   10.7190   21.3350 C   0  0  0  0  0  2  0  0  0  0  0  0
   18.6120    9.6830   20.9000 C   0  0  0  0  0  2  0  0  0  0  0  0
   19.8620    9.6100   21.6090 O   0  0  0  0  0  0  0  0  0  0  0  0
  1  3  1  0
  1  2  2  0
  3 24  1  0
  4  3  1  0
  5  1  1  0
  6  5  2  0
  7  8  1  0
  7  5  1  0
  8  9  2  0
 10  7  1  0
 11 16  2  0
 11  8  1  0
 12 14  2  0
 13 12  1  0
 13 15  2  0
 14 18  1  0
 14 16  1  0
 15 11  1  0
 17 12  1  0
 19  6  1  0
 20 19  2  0
 21 19  1  0
 22 23  2  0
 22 20  1  0
 23 21  1  0
 24 25  1  0
 25 26  1  0
 26 27  1  0
 27 28  1  0
 27 29  1  0
 28 30  1  0
 29 31  1  0
 30 32  1  0
 31 32  1  0
M  RAD  8   6   2  13   2  15   2  16   2  17   2  18   2  20   2  22   2
M  RAD  8  23   2  24   3  25   3  26   3  28   3  29   3  30   3  31   3
M  END
>  <vina_score>  (4) 
-7.5410000000000004

>  <pose_id>  (4) 
4

$$$$

     RDKit          3D

 32 34  0  0  0  0  0  0  0  0999 V2000
   20.3450   11.1970   15.1580 C   0  0  0  0  0  0  0  0  0  0  0  0
   20.2630    9.9760   15.2630 O   0  0  0  0  0  0  0  0  0  0  0  0
   19.8970   12.0810   16.1110 N   0  0  0  0  0  0  0  0  0  0  0  0
   19.6630   13.0020   15.7420 H   0  0  0  0  0  0  0  0  0  0  0  0
   21.0140   11.8230   13.9560 C   0  0  0  0  0  0  0  0  0  0  0  0
   22.2340   11.3080   13.7140 C   0  0  0  0  0  3  0  0  0  0  0  0
   20.4060   12.7490   13.1190 N   0  0  0  0  0  0  0  0  0  0  0  0
   20.0540   14.0610   13.3660 C   0  0  0  0  0  0  0  0  0  0  0  0
   20.4480   14.7390   14.3080 O   0  0  0  0  0  0  0  0  0  0  0  0
   20.1630   12.3950   12.2060 H   0  0  0  0  0  0  0  0  0  0  0  0
   19.1920   14.6920   12.3250 C   0  0  0  0  0  0  0  0  0  0  0  0
   17.5120   15.8440   10.3870 C   0  0  0  0  0  0  0  0  0  0  0  0
   18.9120   15.9220   10.2630 C   0  0  0  0  0  3  0  0  0  0  0  0
   16.9490   15.1710   11.4910 C   0  0  0  0  0  0  0  0  0  0  0  0
   19.7500   15.3490   11.2210 C   0  0  0  0  0  3  0  0  0  0  0  0
   17.7990   14.5900   12.4470 C   0  0  0  0  0  3  0  0  0  0  0  0
   16.6440   16.4640    9.3230 C   0  0  0  0  0  1  0  0  0  0  0  0
   15.4570   15.0210   11.6460 C   0  0  0  0  0  1  0  0  0  0  0  0
   23.1130   11.7120   12.6700 C   0  0  0  0  0  0  0  0  0  0  0  0
   23.7210   12.9360   12.4020 C   0  0  0  0  0  3  0  0  0  0  0  0
   23.5660   10.8230   11.7210 O   0  0  0  0  0  0  0  0  0  0  0  0
   24.5130   12.7910   11.2370 C   0  0  0  0  0  3  0  0  0  0  0  0
   24.3910   11.4770   10.8670 C   0  0  0  0  0  3  0  0  0  0  0  0
   19.0690   11.6390   17.2180 C   0  0  0  0  0  2  0  0  0  0  0  0
   19.9300   11.2630   18.4270 C   0  0  0  0  0  2  0  0  0  0  0  0
   19.4130   11.8600   19.7430 C   0  0  0  0  0  2  0  0  0  0  0  0
   18.7030   10.9120   20.6100 N   0  0  0  0  0  0  0  0  0  0  0  0
   17.2470   11.1780   20.5940 C   0  0  0  0  0  2  0  0  0  0  0  0
   19.2130   10.8550   21.9990 C   0  0  0  0  0  2  0  0  0  0  0  0
   16.5440   10.5530   21.8090 C   0  0  0  0  0  2  0  0  0  0  0  0
   18.3310   11.6090   23.0110 C   0  0  0  0  0  2  0  0  0  0  0  0
   16.9720   11.1400   23.0470 O   0  0  0  0  0  0  0  0  0  0  0  0
  1  2  2  0
  1  3  1  0
  3 24  1  0
  4  3  1  0
  5  1  1  0
  6  5  2  0
  7  8  1  0
  7  5  1  0
  8  9  2  0
 10  7  1  0
 11 16  2  0
 11  8  1  0
 12 14  2  0
 13 12  1  0
 13 15  2  0
 14 18  1  0
 14 16  1  0
 15 11  1  0
 17 12  1  0
 19  6  1  0
 20 19  2  0
 21 19  1  0
 22 20  1  0
 23 22  2  0
 23 21  1  0
 24 25  1  0
 25 26  1  0
 26 27  1  0
 27 29  1  0
 28 27  1  0
 28 30  1  0
 29 31  1  0
 30 32  1  0
 31 32  1  0
M  RAD  8   6   2  13   2  15   2  16   2  17   2  18   2  20   2  22   2
M  RAD  8  23   2  24   3  25   3  26   3  28   3  29   3  30   3  31   3
M  END
>  <vina_score>  (5) 
-7.5339999999999998

>  <pose_id>  (5) 
5

$$$$
