
     RDKit          3D

 47 51  0  0  1  0  0  0  0  0999 V2000
   20.9600   14.7250   12.6350 C   0  0  0  0  0  2  0  0  0  0  0  0
   21.8380   13.6350   12.2080 N   0  0  0  0  0  0  0  0  0  0  0  0
   21.7010   12.8080   12.7920 H   0  0  0  0  0  0  0  0  0  0  0  0
   23.2520   14.0170   12.1880 C   0  0  0  0  0  2  0  0  0  0  0  0
   24.1540   12.7760   12.2820 C   0  0  0  0  0  0  0  0  0  0  0  0
   24.9410   11.1190   13.6850 C   0  0  0  0  0  0  0  0  0  0  0  0
   24.5400   12.5080   13.6440 O   0  0  0  0  0  0  0  0  0  0  0  0
   24.3820   10.4290   12.4280 C   0  0  0  0  0  0  0  0  0  0  0  0
   23.4690   11.4900   11.8310 C   0  0  0  0  0  0  0  0  0  0  0  0
   24.4910   10.5090   14.9170 N   0  0  0  0  0  0  0  0  0  0  0  0
   24.9160    8.2460   17.5520 C   0  0  0  0  0  0  0  0  0  0  0  0
   26.0880    7.6450   17.2350 N   0  0  0  0  0  0  0  0  0  0  0  0
   24.4180    9.2420   16.6940 C   0  0  0  0  0  0  0  0  0  0  0  0
   26.7080    8.0070   16.0900 C   0  0  0  0  0  3  0  0  0  0  0  0
   25.1710    9.5130   15.5640 C   0  0  0  0  0  0  0  0  0  0  0  0
   23.3000   10.0510   16.7400 N   0  0  0  0  0  0  0  0  0  0  0  0
   26.3200    8.9290   15.1810 N   0  0  0  0  0  0  0  0  0  0  0  0
   23.3800   10.8020   15.6580 C   0  0  0  0  0  3  0  0  0  0  0  0
   24.2770    7.8640   18.7260 N   0  0  0  0  0  0  0  0  0  0  0  0
   24.1570    8.6390   19.3650 H   0  0  0  0  0  0  0  0  0  0  0  0
   23.4860    7.2520   18.5680 H   0  0  0  0  0  0  0  0  0  0  0  0
   25.4250   10.1360   11.4760 O   0  0  0  0  0  0  0  0  0  0  0  0
   25.6010   10.9660   10.9870 H   0  0  0  0  0  0  0  0  0  0  0  0
   23.3570   11.3690   10.4170 O   0  0  0  0  0  0  0  0  0  0  0  0
   24.2250   11.0140   10.1280 H   0  0  0  0  0  0  0  0  0  0  0  0
   19.9920   15.2380   11.5850 C   0  0  0  0  0  0  0  0  0  0  0  0
   20.4470   15.6410   10.3150 C   0  0  0  0  0  3  0  0  0  0  0  0
   18.6200   15.3780   11.8570 C   0  0  0  0  0  0  0  0  0  0  0  0
   19.5540   16.0890    9.3360 C   0  0  0  0  0  3  0  0  0  0  0  0
   17.7230   15.7950   10.8680 C   0  0  0  0  0  3  0  0  0  0  0  0
   18.1890   16.1550    9.6080 C   0  0  0  0  0  3  0  0  0  0  0  0
   18.0760   15.0470   13.0700 O   0  0  0  0  0  0  0  0  0  0  0  0
   16.7690   14.4640   12.9470 C   0  0  0  0  0  3  0  0  0  0  0  0
   15.8190   15.3020   13.6250 O   0  0  0  0  0  0  0  0  0  0  0  0
   16.7600   13.0070   13.4560 C   0  0  0  0  0  3  0  0  0  0  0  0
   15.3880   14.8470   14.9200 C   0  0  0  0  0  3  0  0  0  0  0  0
   17.1040   12.9620   14.9520 C   0  0  0  0  0  3  0  0  0  0  0  0
   16.5090   14.1520   15.7280 C   0  0  0  0  0  3  0  0  0  0  0  0
   15.4690   12.3800   13.2600 O   0  0  0  0  0  0  0  0  0  0  0  0
   15.6200   11.4190   13.2480 H   0  0  0  0  0  0  0  0  0  0  0  0
   14.7810   16.0560   15.6540 C   0  0  0  0  0  2  0  0  0  0  0  0
   14.7440   15.8410   17.0690 O   0  0  0  0  0  0  0  0  0  0  0  0
   14.3160   14.9760   17.2110 H   0  0  0  0  0  0  0  0  0  0  0  0
   16.6320   11.7180   15.4960 O   0  0  0  0  0  0  0  0  0  0  0  0
   15.6800   11.8570   15.6730 H   0  0  0  0  0  0  0  0  0  0  0  0
   17.5810   15.0610   16.0220 O   0  0  0  0  0  0  0  0  0  0  0  0
   18.3650   14.7550   15.5140 H   0  0  0  0  0  0  0  0  0  0  0  0
  2  1  1  0
  2  3  1  0
  4  2  1  0
  5  4  1  0
  5  7  1  0
  6 10  1  0
  7  6  1  0
  8 22  1  0
  8  6  1  0
  9 24  1  0
  9  5  1  0
  9  8  1  0
 10 15  1  0
 10 18  1  0
 11 19  1  0
 12 11  1  0
 13 16  1  0
 13 11  2  0
 14 12  2  0
 15 13  1  0
 17 15  2  0
 17 14  1  0
 18 16  2  0
 19 20  1  0
 21 19  1  0
 23 22  1  0
 25 24  1  0
 26 28  1  0
 26  1  1  0
 27 26  2  0
 28 32  1  0
 29 31  2  0
 29 27  1  0
 30 28  2  0
 31 30  1  0
 33 32  1  0
 33 35  1  0
 33 34  1  0
 34 36  1  0
 35 39  1  0
 35 37  1  0
 36 41  1  0
 36 38  1  0
 37 44  1  0
 37 38  1  0
 38 46  1  0
 40 39  1  0
 41 42  1  0
 42 43  1  0
 44 45  1  0
 47 46  1  0
M  RAD  8   1   3   4   3  14   2  18   2  27   2  29   2  30   2  31   2
M  RAD  6  33   2  35   2  36   2  37   2  38   2  41   3
M  END
>  <vina_score>  (1) 
-8.7100000000000009

>  <pose_id>  (1) 
1

$$$$

     RDKit          3D

 47 51  0  0  1  0  0  0  0  0999 V2000
   19.7150   11.4290   18.6960 C   0  0  0  0  0  2  0  0  0  0  0  0
   20.4770   11.2650   17.4580 N   0  0  0  0  0  0  0  0  0  0  0  0
   20.0420   11.7840   16.6930 H   0  0  0  0  0  0  0  0  0  0  0  0
   20.6610    9.8610   17.0830 C   0  0  0  0  0  2  0  0  0  0  0  0
   22.1270    9.5800   16.7200 C   0  0  0  0  0  0  0  0  0  0  0  0
   23.8090   10.0180   15.1990 C   0  0  0  0  0  0  0  0  0  0  0  0
   22.3800    9.8320   15.3240 O   0  0  0  0  0  0  0  0  0  0  0  0
   24.3720   10.3080   16.6020 C   0  0  0  0  0  0  0  0  0  0  0  0
   23.1180   10.4850   17.4450 C   0  0  0  0  0  0  0  0  0  0  0  0
   24.0910   11.0680   14.2440 N   0  0  0  0  0  0  0  0  0  0  0  0
   24.5270   12.1880   10.9580 C   0  0  0  0  0  0  0  0  0  0  0  0
   24.3470   11.0540   10.2370 N   0  0  0  0  0  0  0  0  0  0  0  0
   24.4200   12.1160   12.3580 C   0  0  0  0  0  0  0  0  0  0  0  0
   24.1070    9.9020   10.9000 C   0  0  0  0  0  3  0  0  0  0  0  0
   24.1590   10.8660   12.8930 C   0  0  0  0  0  0  0  0  0  0  0  0
   24.5130   13.0640   13.3580 N   0  0  0  0  0  0  0  0  0  0  0  0
   24.0040    9.7050   12.2320 N   0  0  0  0  0  0  0  0  0  0  0  0
   24.3050   12.3980   14.4770 C   0  0  0  0  0  3  0  0  0  0  0  0
   24.7820   13.3690   10.2730 N   0  0  0  0  0  0  0  0  0  0  0  0
   24.1260   13.5230    9.5170 H   0  0  0  0  0  0  0  0  0  0  0  0
   24.9900   14.1490   10.8850 H   0  0  0  0  0  0  0  0  0  0  0  0
   25.1140    9.1830   17.1170 O   0  0  0  0  0  0  0  0  0  0  0  0
   24.5240    8.4040   17.0540 H   0  0  0  0  0  0  0  0  0  0  0  0
   23.3300   10.1240   18.8060 O   0  0  0  0  0  0  0  0  0  0  0  0
   23.7110    9.2210   18.7680 H   0  0  0  0  0  0  0  0  0  0  0  0
   18.2210   11.6400   18.5250 C   0  0  0  0  0  0  0  0  0  0  0  0
   17.2980   11.0180   19.3850 C   0  0  0  0  0  3  0  0  0  0  0  0
   17.7070   12.4200   17.4740 C   0  0  0  0  0  0  0  0  0  0  0  0
   15.9220   11.2330   19.2460 C   0  0  0  0  0  3  0  0  0  0  0  0
   16.3340   12.6610   17.3540 C   0  0  0  0  0  3  0  0  0  0  0  0
   15.4400   12.0650   18.2380 C   0  0  0  0  0  3  0  0  0  0  0  0
   18.5150   13.0430   16.5600 O   0  0  0  0  0  0  0  0  0  0  0  0
   17.8780   13.2030   15.2820 C   0  0  0  0  0  3  0  0  0  0  0  0
   18.1400   12.0380   14.4830 O   0  0  0  0  0  0  0  0  0  0  0  0
   18.3230   14.5150   14.6010 C   0  0  0  0  0  3  0  0  0  0  0  0
   19.1530   12.1800   13.4720 C   0  0  0  0  0  3  0  0  0  0  0  0
   19.8330   14.4860   14.3200 C   0  0  0  0  0  3  0  0  0  0  0  0
   20.3280   13.0880   13.9080 C   0  0  0  0  0  3  0  0  0  0  0  0
   17.6260   14.7290   13.3490 O   0  0  0  0  0  0  0  0  0  0  0  0
   18.2750   15.0960   12.7230 H   0  0  0  0  0  0  0  0  0  0  0  0
   19.6060   10.7640   13.0710 C   0  0  0  0  0  2  0  0  0  0  0  0
   21.0000   10.7350   12.7510 O   0  0  0  0  0  0  0  0  0  0  0  0
   21.4380   11.3770   13.3410 H   0  0  0  0  0  0  0  0  0  0  0  0
   20.1290   15.4490   13.2950 O   0  0  0  0  0  0  0  0  0  0  0  0
   19.2610   15.8000   13.0110 H   0  0  0  0  0  0  0  0  0  0  0  0
   21.0330   12.5270   15.0270 O   0  0  0  0  0  0  0  0  0  0  0  0
   20.3810   12.4230   15.7550 H   0  0  0  0  0  0  0  0  0  0  0  0
  2  1  1  0
  3  2  1  0
  4  2  1  0
  5  4  1  0
  5  9  1  0
  6 10  1  0
  6  7  1  0
  6  8  1  0
  7  5  1  0
  8 22  1  0
  8  9  1  0
  9 24  1  0
 10 18  1  0
 11 13  2  0
 12 14  2  0
 12 11  1  0
 13 15  1  0
 13 16  1  0
 14 17  1  0
 15 10  1  0
 16 18  2  0
 17 15  2  0
 19 21  1  0
 19 11  1  0
 20 19  1  0
 23 22  1  0
 25 24  1  0
 26  1  1  0
 26 27  2  0
 28 26  1  0
 29 27  1  0
 30 28  2  0
 30 31  1  0
 31 29  2  0
 32 28  1  0
 33 32  1  0
 34 33  1  0
 35 39  1  0
 35 33  1  0
 36 41  1  0
 36 38  1  0
 36 34  1  0
 37 44  1  0
 37 35  1  0
 38 37  1  0
 38 46  1  0
 40 39  1  0
 42 41  1  0
 42 43  1  0
 45 44  1  0
 46 47  1  0
M  RAD  8   1   3   4   3  14   2  18   2  27   2  29   2  30   2  31   2
M  RAD  6  33   2  35   2  36   2  37   2  38   2  41   3
M  END
>  <vina_score>  (2) 
-8.5600000000000005

>  <pose_id>  (2) 
2

$$$$

     RDKit          3D

 47 51  0  0  1  0  0  0  0  0999 V2000
   21.8700   14.5160   13.7820 C   0  0  0  0  0  2  0  0  0  0  0  0
   21.1060   13.4200   14.3810 N   0  0  0  0  0  0  0  0  0  0  0  0
   21.6730   12.5720   14.4400 H   0  0  0  0  0  0  0  0  0  0  0  0
   19.8510   13.1480   13.6750 C   0  0  0  0  0  2  0  0  0  0  0  0
   19.2000   11.8580   14.1980 C   0  0  0  0  0  0  0  0  0  0  0  0
   18.6910   10.6360   16.0900 C   0  0  0  0  0  0  0  0  0  0  0  0
   19.6770   11.5250   15.5160 O   0  0  0  0  0  0  0  0  0  0  0  0
   17.3940   10.7780   15.2730 C   0  0  0  0  0  0  0  0  0  0  0  0
   17.6880   11.9640   14.3670 C   0  0  0  0  0  0  0  0  0  0  0  0
   18.5130   10.9330   17.4950 N   0  0  0  0  0  0  0  0  0  0  0  0
   19.7630   11.2120   20.7520 C   0  0  0  0  0  0  0  0  0  0  0  0
   21.0580   10.8430   20.6000 N   0  0  0  0  0  0  0  0  0  0  0  0
   18.9310   11.2210   19.6190 C   0  0  0  0  0  0  0  0  0  0  0  0
   21.4810   10.4690   19.3730 C   0  0  0  0  0  3  0  0  0  0  0  0
   19.5100   10.8230   18.4260 C   0  0  0  0  0  0  0  0  0  0  0  0
   17.6080   11.5660   19.4260 N   0  0  0  0  0  0  0  0  0  0  0  0
   20.7760   10.4180   18.2210 N   0  0  0  0  0  0  0  0  0  0  0  0
   17.3940   11.3850   18.1370 C   0  0  0  0  0  3  0  0  0  0  0  0
   19.3300   11.5870   22.0180 N   0  0  0  0  0  0  0  0  0  0  0  0
   19.3230   12.5920   22.1370 H   0  0  0  0  0  0  0  0  0  0  0  0
   18.5200   11.0670   22.3330 H   0  0  0  0  0  0  0  0  0  0  0  0
   17.1600    9.6190   14.4470 O   0  0  0  0  0  0  0  0  0  0  0  0
   17.7080    8.8950   14.8150 H   0  0  0  0  0  0  0  0  0  0  0  0
   16.9700   11.8940   13.1390 O   0  0  0  0  0  0  0  0  0  0  0  0
   16.0560   12.1670   13.3690 H   0  0  0  0  0  0  0  0  0  0  0  0
   22.6930   14.1510   12.5600 C   0  0  0  0  0  0  0  0  0  0  0  0
   22.4200   14.7250   11.3050 C   0  0  0  0  0  3  0  0  0  0  0  0
   23.7180   13.1910   12.6260 C   0  0  0  0  0  0  0  0  0  0  0  0
   23.1950   14.4110   10.1820 C   0  0  0  0  0  3  0  0  0  0  0  0
   24.5120   12.9010   11.5120 C   0  0  0  0  0  3  0  0  0  0  0  0
   24.2500   13.5070   10.2880 C   0  0  0  0  0  3  0  0  0  0  0  0
   24.0440   12.5460   13.7890 O   0  0  0  0  0  0  0  0  0  0  0  0
   24.5740   11.2300   13.5590 C   0  0  0  0  0  3  0  0  0  0  0  0
   23.4830   10.3010   13.4550 O   0  0  0  0  0  0  0  0  0  0  0  0
   25.5940   10.8440   14.6510 C   0  0  0  0  0  3  0  0  0  0  0  0
   23.2330    9.4890   14.6150 C   0  0  0  0  0  3  0  0  0  0  0  0
   24.9110   10.7900   16.0250 C   0  0  0  0  0  3  0  0  0  0  0  0
   23.4770   10.2350   15.9480 C   0  0  0  0  0  3  0  0  0  0  0  0
   26.1980    9.5540   14.3850 O   0  0  0  0  0  0  0  0  0  0  0  0
   25.5060    8.8830   14.5270 H   0  0  0  0  0  0  0  0  0  0  0  0
   21.8020    8.9360   14.4910 C   0  0  0  0  0  2  0  0  0  0  0  0
   21.2090    8.7330   15.7780 O   0  0  0  0  0  0  0  0  0  0  0  0
   20.6540    7.9330   15.7090 H   0  0  0  0  0  0  0  0  0  0  0  0
   25.7160    9.9900   16.9080 O   0  0  0  0  0  0  0  0  0  0  0  0
   26.6350   10.2950   16.7680 H   0  0  0  0  0  0  0  0  0  0  0  0
   22.5730   11.3400   16.1010 O   0  0  0  0  0  0  0  0  0  0  0  0
   23.0750   12.0640   16.5390 H   0  0  0  0  0  0  0  0  0  0  0  0
  1  2  1  0
  2  3  1  0
  4  2  1  0
  5  4  1  0
  5  9  1  0
  5  7  1  0
  6 10  1  0
  7  6  1  0
  8 22  1  0
  8  6  1  0
  9 24  1  0
  9  8  1  0
 10 18  1  0
 10 15  1  0
 11 19  1  0
 12 11  1  0
 13 11  2  0
 14 12  2  0
 15 13  1  0
 16 13  1  0
 17 15  2  0
 17 14  1  0
 18 16  2  0
 19 20  1  0
 19 21  1  0
 22 23  1  0
 24 25  1  0
 26 28  1  0
 26  1  1  0
 27 26  2  0
 28 32  1  0
 29 31  2  0
 29 27  1  0
 30 28  2  0
 31 30  1  0
 33 32  1  0
 33 35  1  0
 34 33  1  0
 34 36  1  0
 35 39  1  0
 35 37  1  0
 36 41  1  0
 36 38  1  0
 37 44  1  0
 38 37  1  0
 38 46  1  0
 39 40  1  0
 41 42  1  0
 43 42  1  0
 45 44  1  0
 46 47  1  0
M  RAD  8   1   3   4   3  14   2  18   2  27   2  29   2  30   2  31   2
M  RAD  6  33   2  35   2  36   2  37   2  38   2  41   3
M  END
>  <vina_score>  (3) 
-8.5389999999999997

>  <pose_id>  (3) 
3

$$$$

     RDKit          3D

 47 51  0  0  1  0  0  0  0  0999 V2000
   23.0710   12.1710   12.7080 C   0  0  0  0  0  2  0  0  0  0  0  0
   24.4480   11.8300   13.0690 N   0  0  0  0  0  0  0  0  0  0  0  0
   24.5650   10.8180   13.1410 H   0  0  0  0  0  0  0  0  0  0  0  0
   24.8910   12.4840   14.3030 C   0  0  0  0  0  2  0  0  0  0  0  0
   24.9610   11.4760   15.4610 C   0  0  0  0  0  0  0  0  0  0  0  0
   23.7310   10.3590   17.0640 C   0  0  0  0  0  0  0  0  0  0  0  0
   23.8280   11.6080   16.3410 O   0  0  0  0  0  0  0  0  0  0  0  0
   24.5520    9.3050   16.2990 C   0  0  0  0  0  0  0  0  0  0  0  0
   24.9080   10.0220   15.0050 C   0  0  0  0  0  0  0  0  0  0  0  0
   22.3410    9.9880   17.2280 N   0  0  0  0  0  0  0  0  0  0  0  0
   19.4420    9.7440   19.1720 C   0  0  0  0  0  0  0  0  0  0  0  0
   19.8480   10.2400   20.3650 N   0  0  0  0  0  0  0  0  0  0  0  0
   20.3700    9.6880   18.1170 C   0  0  0  0  0  0  0  0  0  0  0  0
   21.1360   10.6270   20.4970 C   0  0  0  0  0  3  0  0  0  0  0  0
   21.6510   10.1310   18.4000 C   0  0  0  0  0  0  0  0  0  0  0  0
   20.2760    9.2810   16.8010 N   0  0  0  0  0  0  0  0  0  0  0  0
   22.1190   10.6020   19.5700 N   0  0  0  0  0  0  0  0  0  0  0  0
   21.4780    9.4800   16.2970 C   0  0  0  0  0  3  0  0  0  0  0  0
   18.1190    9.3390   19.0430 N   0  0  0  0  0  0  0  0  0  0  0  0
   17.8240    8.7500   19.8120 H   0  0  0  0  0  0  0  0  0  0  0  0
   17.4990   10.0860   18.7540 H   0  0  0  0  0  0  0  0  0  0  0  0
   25.7740    8.9810   16.9930 O   0  0  0  0  0  0  0  0  0  0  0  0
   26.1980    9.8320   17.2290 H   0  0  0  0  0  0  0  0  0  0  0  0
   26.1330    9.5520   14.4510 O   0  0  0  0  0  0  0  0  0  0  0  0
   26.4780    8.9160   15.1130 H   0  0  0  0  0  0  0  0  0  0  0  0
   22.9140   13.3170   11.7250 C   0  0  0  0  0  0  0  0  0  0  0  0
   23.7580   13.4310   10.6050 C   0  0  0  0  0  3  0  0  0  0  0  0
   21.9590   14.3290   11.9240 C   0  0  0  0  0  0  0  0  0  0  0  0
   23.5980   14.4710    9.6820 C   0  0  0  0  0  3  0  0  0  0  0  0
   21.7780   15.3510   10.9870 C   0  0  0  0  0  3  0  0  0  0  0  0
   22.6000   15.4250    9.8670 C   0  0  0  0  0  3  0  0  0  0  0  0
   21.1100   14.3330   12.9990 O   0  0  0  0  0  0  0  0  0  0  0  0
   19.8030   13.8330   12.6700 C   0  0  0  0  0  3  0  0  0  0  0  0
   18.8310   14.8550   12.9420 O   0  0  0  0  0  0  0  0  0  0  0  0
   19.5130   12.5110   13.4120 C   0  0  0  0  0  3  0  0  0  0  0  0
   18.0730   14.6990   14.1540 C   0  0  0  0  0  3  0  0  0  0  0  0
   19.5070   12.7400   14.9300 C   0  0  0  0  0  3  0  0  0  0  0  0
   18.8980   14.1000   15.3180 C   0  0  0  0  0  3  0  0  0  0  0  0
   18.2330   11.9520   13.0260 O   0  0  0  0  0  0  0  0  0  0  0  0
   17.6760   12.6950   12.7330 H   0  0  0  0  0  0  0  0  0  0  0  0
   17.4630   16.0710   14.4960 C   0  0  0  0  0  2  0  0  0  0  0  0
   17.4020   16.2750   15.9110 O   0  0  0  0  0  0  0  0  0  0  0  0
   18.3230   16.3590   16.2230 H   0  0  0  0  0  0  0  0  0  0  0  0
   18.7850   11.6660   15.5560 O   0  0  0  0  0  0  0  0  0  0  0  0
   18.7630   11.8900   16.5090 H   0  0  0  0  0  0  0  0  0  0  0  0
   19.9760   14.9700   15.6960 O   0  0  0  0  0  0  0  0  0  0  0  0
   20.2260   15.4830   14.8950 H   0  0  0  0  0  0  0  0  0  0  0  0
  1  2  1  0
  2  3  1  0
  2  4  1  0
  5  4  1  0
  5  7  1  0
  6 10  1  0
  7  6  1  0
  8 22  1  0
  8  6  1  0
  9 24  1  0
  9  5  1  0
  9  8  1  0
 10 15  1  0
 11 12  1  0
 12 14  2  0
 13 15  1  0
 13 11  2  0
 15 17  2  0
 16 13  1  0
 17 14  1  0
 18 16  2  0
 18 10  1  0
 19 11  1  0
 19 20  1  0
 21 19  1  0
 22 23  1  0
 24 25  1  0
 26 28  1  0
 26  1  1  0
 27 26  2  0
 28 32  1  0
 29 31  2  0
 29 27  1  0
 30 28  2  0
 31 30  1  0
 33 34  1  0
 33 32  1  0
 33 35  1  0
 34 36  1  0
 35 39  1  0
 35 37  1  0
 36 41  1  0
 36 38  1  0
 37 38  1  0
 37 44  1  0
 38 46  1  0
 40 39  1  0
 41 42  1  0
 42 43  1  0
 44 45  1  0
 47 46  1  0
M  RAD  8   1   3   4   3  14   2  18   2  27   2  29   2  30   2  31   2
M  RAD  6  33   2  35   2  36   2  37   2  38   2  41   3
M  END
>  <vina_score>  (4) 
-8.3469999999999995

>  <pose_id>  (4) 
4

$$$$

     RDKit          3D

 47 51  0  0  1  0  0  0  0  0999 V2000
   21.8930   14.5860   13.3680 C   0  0  0  0  0  2  0  0  0  0  0  0
   20.8890   13.5860   13.7360 N   0  0  0  0  0  0  0  0  0  0  0  0
   20.6700   12.9820   12.9420 H   0  0  0  0  0  0  0  0  0  0  0  0
   19.6650   14.1820   14.2780 C   0  0  0  0  0  2  0  0  0  0  0  0
   18.6420   13.0930   14.6380 C   0  0  0  0  0  0  0  0  0  0  0  0
   18.2280   11.2690   15.9920 C   0  0  0  0  0  0  0  0  0  0  0  0
   19.2750   11.9690   15.2790 O   0  0  0  0  0  0  0  0  0  0  0  0
   17.0310   12.2250   16.1340 C   0  0  0  0  0  0  0  0  0  0  0  0
   17.5940   13.5530   15.6460 C   0  0  0  0  0  0  0  0  0  0  0  0
   18.7290   10.7910   17.2630 N   0  0  0  0  0  0  0  0  0  0  0  0
   18.8840    8.3660   19.7820 C   0  0  0  0  0  0  0  0  0  0  0  0
   18.0370    7.4130   19.3220 N   0  0  0  0  0  0  0  0  0  0  0  0
   19.0780    9.5220   19.0060 C   0  0  0  0  0  0  0  0  0  0  0  0
   17.3940    7.6330   18.1540 C   0  0  0  0  0  3  0  0  0  0  0  0
   18.3570    9.6010   17.8260 C   0  0  0  0  0  0  0  0  0  0  0  0
   19.8740   10.6400   19.1640 N   0  0  0  0  0  0  0  0  0  0  0  0
   17.4820    8.7050   17.3360 N   0  0  0  0  0  0  0  0  0  0  0  0
   19.6410   11.3770   18.0960 C   0  0  0  0  0  3  0  0  0  0  0  0
   19.5360    8.1400   20.9870 N   0  0  0  0  0  0  0  0  0  0  0  0
   19.6680    7.1540   21.1720 H   0  0  0  0  0  0  0  0  0  0  0  0
   20.3250    8.7590   21.1370 H   0  0  0  0  0  0  0  0  0  0  0  0
   15.9440   11.8440   15.2670 O   0  0  0  0  0  0  0  0  0  0  0  0
   15.4030   12.6480   15.1240 H   0  0  0  0  0  0  0  0  0  0  0  0
   16.5870   14.3880   15.0840 O   0  0  0  0  0  0  0  0  0  0  0  0
   17.0460   15.2340   14.8890 H   0  0  0  0  0  0  0  0  0  0  0  0
   22.8080   14.2050   12.2180 C   0  0  0  0  0  0  0  0  0  0  0  0
   22.6050   14.7270   10.9270 C   0  0  0  0  0  3  0  0  0  0  0  0
   23.8540   13.2820   12.3880 C   0  0  0  0  0  0  0  0  0  0  0  0
   23.4640   14.3980    9.8720 C   0  0  0  0  0  3  0  0  0  0  0  0
   24.7310   12.9780   11.3420 C   0  0  0  0  0  3  0  0  0  0  0  0
   24.5350   13.5330   10.0810 C   0  0  0  0  0  3  0  0  0  0  0  0
   24.1190   12.6880   13.5940 O   0  0  0  0  0  0  0  0  0  0  0  0
   24.5070   11.3110   13.4570 C   0  0  0  0  0  3  0  0  0  0  0  0
   23.3400   10.5260   13.1610 O   0  0  0  0  0  0  0  0  0  0  0  0
   25.2640   10.8200   14.7080 C   0  0  0  0  0  3  0  0  0  0  0  0
   22.7910    9.7750   14.2590 C   0  0  0  0  0  3  0  0  0  0  0  0
   24.3530   10.8810   15.9420 C   0  0  0  0  0  3  0  0  0  0  0  0
   22.8940   10.5110   15.6150 C   0  0  0  0  0  3  0  0  0  0  0  0
   25.7330    9.4590   14.5480 O   0  0  0  0  0  0  0  0  0  0  0  0
   26.6970    9.4720   14.6910 H   0  0  0  0  0  0  0  0  0  0  0  0
   21.3430    9.4070   13.8860 C   0  0  0  0  0  2  0  0  0  0  0  0
   20.7090   10.4630   13.1570 O   0  0  0  0  0  0  0  0  0  0  0  0
   20.7490   11.2580   13.7210 H   0  0  0  0  0  0  0  0  0  0  0  0
   24.8820   10.0030   16.9500 O   0  0  0  0  0  0  0  0  0  0  0  0
   24.7700   10.4820   17.7960 H   0  0  0  0  0  0  0  0  0  0  0  0
   22.1270   11.7260   15.6110 O   0  0  0  0  0  0  0  0  0  0  0  0
   22.3340   12.2000   16.4470 H   0  0  0  0  0  0  0  0  0  0  0  0
  1  2  1  0
  2  4  1  0
  3  2  1  0
  5  4  1  0
  5  7  1  0
  5  9  1  0
  6  8  1  0
  6 10  1  0
  7  6  1  0
  8 22  1  0
  9 24  1  0
  9  8  1  0
 10 15  1  0
 10 18  1  0
 11 19  1  0
 12 11  1  0
 13 16  1  0
 13 11  2  0
 14 12  2  0
 15 13  1  0
 17 15  2  0
 17 14  1  0
 18 16  2  0
 19 21  1  0
 19 20  1  0
 23 22  1  0
 25 24  1  0
 26 28  1  0
 26  1  1  0
 27 26  2  0
 28 32  1  0
 29 31  2  0
 29 27  1  0
 30 28  2  0
 31 30  1  0
 33 32  1  0
 33 35  1  0
 34 33  1  0
 34 36  1  0
 35 39  1  0
 35 37  1  0
 36 41  1  0
 36 38  1  0
 37 44  1  0
 38 46  1  0
 38 37  1  0
 39 40  1  0
 42 43  1  0
 42 41  1  0
 44 45  1  0
 46 47  1  0
M  RAD  8   1   3   4   3  14   2  18   2  27   2  29   2  30   2  31   2
M  RAD  6  33   2  35   2  36   2  37   2  38   2  41   3
M  END
>  <vina_score>  (5) 
-8.2460000000000004

>  <pose_id>  (5) 
5

$$$$
