
     RDKit          3D

 23 26  0  0  1  0  0  0  0  0999 V2000
   21.0280   12.5550   12.7960 C   0  0  0  0  0  0  0  0  0  0  0  0
   20.6500   14.0560   13.0090 C   0  0  0  0  0  3  0  0  0  0  0  0
   21.8580   15.0110   13.0430 C   0  0  0  0  0  2  0  0  0  0  0  0
   23.0860   14.5420   12.2800 C   0  0  0  0  0  0  0  0  0  0  0  0
   22.9520   14.5110   10.7490 C   0  0  0  0  0  2  0  0  0  0  0  0
   24.0140   13.5050   10.3300 C   0  0  0  0  0  2  0  0  0  0  0  0
   24.0040   12.5530   11.4160 N   0  0  0  0  0  0  0  0  0  0  0  0
   24.5100   11.2780   11.3520 C   0  0  0  0  0  0  0  0  0  0  0  0
   25.0950   10.8120   10.3820 O   0  0  0  0  0  0  0  0  0  0  0  0
   24.2660   10.4960   12.6290 C   0  0  0  0  0  2  0  0  0  0  0  0
   22.8220   10.7220   13.0910 C   0  0  0  0  0  2  0  0  0  0  0  0
   22.4560   12.2190   13.3040 C   0  0  0  0  0  0  0  0  0  0  0  0
   23.5190   13.1230   12.6550 C   0  0  0  0  0  0  0  0  0  0  0  0
   19.9180   11.6290   13.3640 C   0  0  0  0  0  2  0  0  0  0  0  0
   19.2970   12.0750   14.6820 C   0  0  0  0  0  1  0  0  0  0  0  0
   19.7300   14.4730   11.9400 N   0  0  0  0  0  0  0  0  0  0  0  0
   19.6300   13.7940   11.1900 H   0  0  0  0  0  0  0  0  0  0  0  0
   18.5120   15.1010   12.2170 C   0  0  0  0  0  0  0  0  0  0  0  0
   18.0880   15.4640   13.5000 C   0  0  0  0  0  3  0  0  0  0  0  0
   17.7180   15.5140   11.1350 C   0  0  0  0  0  3  0  0  0  0  0  0
   16.8860   16.1510   13.7020 C   0  0  0  0  0  3  0  0  0  0  0  0
   16.5160   16.2000   11.3290 C   0  0  0  0  0  3  0  0  0  0  0  0
   16.0950   16.5150   12.6160 C   0  0  0  0  0  3  0  0  0  0  0  0
  1  2  1  0
  1 12  1  0
  1 14  1  0
  2 16  1  0
  2  3  1  0
  4  5  1  0
  4 13  1  0
  4  3  1  0
  6  5  1  0
  6  7  1  0
  8  7  1  0
  8 10  1  0
  9  8  2  0
 10 11  1  0
 12 11  1  0
 13  7  1  0
 13 12  1  0
 14 15  1  0
 16 18  1  0
 17 16  1  0
 18 19  2  0
 19 21  1  0
 20 22  2  0
 20 18  1  0
 22 23  1  0
 23 21  2  0
M  RAD  8   2   2   3   3   5   3   6   3  10   3  11   3  14   3  15   2
M  RAD  5  19   2  20   2  21   2  22   2  23   2
M  END
>  <vina_score>  (1) 
-6.8979999999999997

>  <pose_id>  (1) 
1

$$$$

     RDKit          3D

 23 26  0  0  1  0  0  0  0  0999 V2000
   19.4440   15.0250   11.5610 C   0  0  0  0  0  0  0  0  0  0  0  0
   20.3120   14.7200   12.8240 C   0  0  0  0  0  3  0  0  0  0  0  0
   19.5590   14.8750   14.1590 C   0  0  0  0  0  2  0  0  0  0  0  0
   18.0540   14.6730   14.0910 C   0  0  0  0  0  0  0  0  0  0  0  0
   17.5840   13.2360   13.8120 C   0  0  0  0  0  2  0  0  0  0  0  0
   16.1910   13.4350   13.2340 C   0  0  0  0  0  2  0  0  0  0  0  0
   16.3200   14.6720   12.4990 N   0  0  0  0  0  0  0  0  0  0  0  0
   15.4640   15.0960   11.5110 C   0  0  0  0  0  0  0  0  0  0  0  0
   14.4440   14.5050   11.1770 O   0  0  0  0  0  0  0  0  0  0  0  0
   15.9210   16.3910   10.8700 C   0  0  0  0  0  2  0  0  0  0  0  0
   17.4270   16.3150   10.5940 C   0  0  0  0  0  2  0  0  0  0  0  0
   18.2840   16.0140   11.8570 C   0  0  0  0  0  0  0  0  0  0  0  0
   17.3850   15.5130   13.0020 C   0  0  0  0  0  0  0  0  0  0  0  0
   20.3460   15.4430   10.3690 C   0  0  0  0  0  2  0  0  0  0  0  0
   21.6410   16.1540   10.7400 C   0  0  0  0  0  1  0  0  0  0  0  0
   20.8400   13.3510   12.7210 N   0  0  0  0  0  0  0  0  0  0  0  0
   20.6810   12.9120   11.8170 H   0  0  0  0  0  0  0  0  0  0  0  0
   22.0900   13.0000   13.2390 C   0  0  0  0  0  0  0  0  0  0  0  0
   23.3060   13.5060   12.7690 C   0  0  0  0  0  3  0  0  0  0  0  0
   22.1280   12.1920   14.3860 C   0  0  0  0  0  3  0  0  0  0  0  0
   24.5200   13.1650   13.3770 C   0  0  0  0  0  3  0  0  0  0  0  0
   23.3360   11.8460   14.9990 C   0  0  0  0  0  3  0  0  0  0  0  0
   24.5360   12.3290   14.4890 C   0  0  0  0  0  3  0  0  0  0  0  0
  1 14  1  0
  1 12  1  0
  1  2  1  0
  2 16  1  0
  2  3  1  0
  4  5  1  0
  4  3  1  0
  6  5  1  0
  7  6  1  0
  8  7  1  0
  9  8  2  0
 10  8  1  0
 11 10  1  0
 12 11  1  0
 12 13  1  0
 13  7  1  0
 13  4  1  0
 14 15  1  0
 16 18  1  0
 17 16  1  0
 18 20  1  0
 19 18  2  0
 19 21  1  0
 20 22  2  0
 21 23  2  0
 23 22  1  0
M  RAD  8   2   2   3   3   5   3   6   3  10   3  11   3  14   3  15   2
M  RAD  5  19   2  20   2  21   2  22   2  23   2
M  END
>  <vina_score>  (2) 
-6.8120000000000003

>  <pose_id>  (2) 
2

$$$$

     RDKit          3D

 23 26  0  0  1  0  0  0  0  0999 V2000
   20.7450   13.4830   13.3440 C   0  0  0  0  0  0  0  0  0  0  0  0
   19.6130   12.4090   13.2550 C   0  0  0  0  0  3  0  0  0  0  0  0
   20.1250   10.9670   13.0880 C   0  0  0  0  0  2  0  0  0  0  0  0
   21.5140   10.6950   13.6420 C   0  0  0  0  0  0  0  0  0  0  0  0
   21.6430   10.7310   15.1730 C   0  0  0  0  0  2  0  0  0  0  0  0
   23.1220   11.0170   15.3880 C   0  0  0  0  0  2  0  0  0  0  0  0
   23.4500   11.8770   14.2740 N   0  0  0  0  0  0  0  0  0  0  0  0
   24.5500   12.6960   14.2070 C   0  0  0  0  0  0  0  0  0  0  0  0
   25.4270   12.7500   15.0610 O   0  0  0  0  0  0  0  0  0  0  0  0
   24.5650   13.5390   12.9470 C   0  0  0  0  0  2  0  0  0  0  0  0
   23.1660   14.1180   12.7100 C   0  0  0  0  0  2  0  0  0  0  0  0
   22.0460   13.0430   12.6190 C   0  0  0  0  0  0  0  0  0  0  0  0
   22.5630   11.6920   13.1460 C   0  0  0  0  0  0  0  0  0  0  0  0
   20.2120   14.8730   12.9040 C   0  0  0  0  0  2  0  0  0  0  0  0
   19.3310   14.8780   11.6610 C   0  0  0  0  0  1  0  0  0  0  0  0
   18.7800   12.4930   14.4630 N   0  0  0  0  0  0  0  0  0  0  0  0
   19.3070   12.6150   15.3240 H   0  0  0  0  0  0  0  0  0  0  0  0
   17.5910   13.2280   14.4920 C   0  0  0  0  0  0  0  0  0  0  0  0
   17.3390   14.2810   15.3770 C   0  0  0  0  0  3  0  0  0  0  0  0
   16.6390   12.9860   13.4890 C   0  0  0  0  0  3  0  0  0  0  0  0
   16.1530   15.0210   15.3080 C   0  0  0  0  0  3  0  0  0  0  0  0
   15.4510   13.7200   13.4140 C   0  0  0  0  0  3  0  0  0  0  0  0
   15.2050   14.7370   14.3300 C   0  0  0  0  0  3  0  0  0  0  0  0
  1 14  1  0
  2  1  1  0
  2 16  1  0
  3  2  1  0
  4  3  1  0
  4  5  1  0
  5  6  1  0
  7  6  1  0
  8  7  1  0
  8  9  2  0
 10  8  1  0
 11 10  1  0
 12 11  1  0
 12 13  1  0
 12  1  1  0
 13  4  1  0
 13  7  1  0
 15 14  1  0
 16 18  1  0
 16 17  1  0
 18 19  2  0
 20 18  1  0
 21 19  1  0
 22 20  2  0
 22 23  1  0
 23 21  2  0
M  RAD  8   2   2   3   3   5   3   6   3  10   3  11   3  14   3  15   2
M  RAD  5  19   2  20   2  21   2  22   2  23   2
M  END
>  <vina_score>  (3) 
-6.444

>  <pose_id>  (3) 
3

$$$$

     RDKit          3D

 23 26  0  0  1  0  0  0  0  0999 V2000
   22.4990   12.4790   14.1740 C   0  0  0  0  0  0  0  0  0  0  0  0
   21.4560   12.6040   13.0180 C   0  0  0  0  0  3  0  0  0  0  0  0
   20.3590   11.5240   13.0400 C   0  0  0  0  0  2  0  0  0  0  0  0
   20.0500   10.9300   14.4050 C   0  0  0  0  0  0  0  0  0  0  0  0
   19.3630   11.8730   15.4050 C   0  0  0  0  0  2  0  0  0  0  0  0
   19.7120   11.2600   16.7530 C   0  0  0  0  0  2  0  0  0  0  0  0
   21.0370   10.7290   16.5330 N   0  0  0  0  0  0  0  0  0  0  0  0
   21.9320   10.4030   17.5230 C   0  0  0  0  0  0  0  0  0  0  0  0
   21.6890   10.4620   18.7220 O   0  0  0  0  0  0  0  0  0  0  0  0
   23.2700    9.9570   16.9670 C   0  0  0  0  0  2  0  0  0  0  0  0
   23.6910   10.9060   15.8400 C   0  0  0  0  0  2  0  0  0  0  0  0
   22.6480   11.0230   14.6910 C   0  0  0  0  0  0  0  0  0  0  0  0
   21.2970   10.4360   15.1390 C   0  0  0  0  0  0  0  0  0  0  0  0
   23.8400   13.1500   13.7720 C   0  0  0  0  0  2  0  0  0  0  0  0
   24.3150   12.8750   12.3500 C   0  0  0  0  0  1  0  0  0  0  0  0
   20.8310   13.9340   13.0810 N   0  0  0  0  0  0  0  0  0  0  0  0
   21.1420   14.5020   13.8650 H   0  0  0  0  0  0  0  0  0  0  0  0
   20.6370   14.7140   11.9370 C   0  0  0  0  0  0  0  0  0  0  0  0
   21.6670   15.1360   11.0900 C   0  0  0  0  0  3  0  0  0  0  0  0
   19.3190   14.9850   11.5360 C   0  0  0  0  0  3  0  0  0  0  0  0
   21.3980   15.8600    9.9220 C   0  0  0  0  0  3  0  0  0  0  0  0
   19.0420   15.7080   10.3720 C   0  0  0  0  0  3  0  0  0  0  0  0
   20.0840   16.1520    9.5660 C   0  0  0  0  0  3  0  0  0  0  0  0
  1 14  1  0
  1 12  1  0
  2  3  1  0
  2 16  1  0
  2  1  1  0
  4  3  1  0
  4 13  1  0
  4  5  1  0
  5  6  1  0
  7  6  1  0
  7  8  1  0
  8  9  2  0
 10  8  1  0
 11 10  1  0
 12 13  1  0
 12 11  1  0
 13  7  1  0
 15 14  1  0
 16 17  1  0
 18 16  1  0
 19 18  2  0
 20 18  1  0
 21 19  1  0
 22 20  2  0
 23 21  2  0
 23 22  1  0
M  RAD  8   2   2   3   3   5   3   6   3  10   3  11   3  14   3  15   2
M  RAD  5  19   2  20   2  21   2  22   2  23   2
M  END
>  <vina_score>  (4) 
-6.375

>  <pose_id>  (4) 
4

$$$$

     RDKit          3D

 23 26  0  0  1  0  0  0  0  0999 V2000
   16.9130   12.7810   16.4750 C   0  0  0  0  0  0  0  0  0  0  0  0
   17.8670   11.6880   17.0550 C   0  0  0  0  0  3  0  0  0  0  0  0
   18.5950   10.8540   15.9840 C   0  0  0  0  0  2  0  0  0  0  0  0
   18.8050   11.5440   14.6450 C   0  0  0  0  0  0  0  0  0  0  0  0
   19.8060   12.7110   14.6440 C   0  0  0  0  0  2  0  0  0  0  0  0
   19.3810   13.5280   13.4320 C   0  0  0  0  0  2  0  0  0  0  0  0
   17.9470   13.3600   13.4150 N   0  0  0  0  0  0  0  0  0  0  0  0
   17.0640   14.1750   12.7490 C   0  0  0  0  0  0  0  0  0  0  0  0
   17.3930   15.1100   12.0300 O   0  0  0  0  0  0  0  0  0  0  0  0
   15.6200   13.7880   13.0010 C   0  0  0  0  0  2  0  0  0  0  0  0
   15.4240   13.5110   14.4950 C   0  0  0  0  0  2  0  0  0  0  0  0
   16.3750   12.4190   15.0640 C   0  0  0  0  0  0  0  0  0  0  0  0
   17.5190   12.1420   14.0710 C   0  0  0  0  0  0  0  0  0  0  0  0
   15.8070   13.1390   17.5030 C   0  0  0  0  0  2  0  0  0  0  0  0
   15.2220   11.9640   18.2780 C   0  0  0  0  0  1  0  0  0  0  0  0
   18.8600   12.3340   17.9250 N   0  0  0  0  0  0  0  0  0  0  0  0
   18.7540   13.3430   18.0000 H   0  0  0  0  0  0  0  0  0  0  0  0
   19.2450   11.7760   19.1480 C   0  0  0  0  0  0  0  0  0  0  0  0
   20.5380   11.3230   19.4330 C   0  0  0  0  0  3  0  0  0  0  0  0
   18.3170   11.7860   20.2020 C   0  0  0  0  0  3  0  0  0  0  0  0
   20.8740   10.8360   20.7020 C   0  0  0  0  0  3  0  0  0  0  0  0
   18.6460   11.3000   21.4710 C   0  0  0  0  0  3  0  0  0  0  0  0
   19.9260   10.8180   21.7200 C   0  0  0  0  0  3  0  0  0  0  0  0
  1  2  1  0
  1 14  1  0
  2 16  1  0
  3  2  1  0
  4  5  1  0
  4  3  1  0
  6  5  1  0
  7  6  1  0
  8 10  1  0
  8  7  1  0
  9  8  2  0
 10 11  1  0
 12 11  1  0
 12  1  1  0
 13  7  1  0
 13  4  1  0
 13 12  1  0
 14 15  1  0
 16 17  1  0
 16 18  1  0
 18 19  2  0
 18 20  1  0
 19 21  1  0
 20 22  2  0
 21 23  2  0
 22 23  1  0
M  RAD  8   2   2   3   3   5   3   6   3  10   3  11   3  14   3  15   2
M  RAD  5  19   2  20   2  21   2  22   2  23   2
M  END
>  <vina_score>  (5) 
-6.298

>  <pose_id>  (5) 
5

$$$$
