
     RDKit          3D

 24 25  0  0  0  0  0  0  0  0999 V2000
   18.8170   13.5730   14.1400 C   0  0  0  0  0  0  0  0  0  0  0  0
   18.3260   11.9780   13.8930 S   0  0  0  0  0  0  0  0  0  0  0  0
   20.1410   13.9920   14.0420 N   0  0  0  0  0  0  0  0  0  0  0  0
   20.4090   14.6570   14.7550 H   0  0  0  0  0  0  0  0  0  0  0  0
   17.9370   14.6140   14.5360 N   0  0  0  0  0  0  0  0  0  0  0  0
   16.8700   14.4060   15.5410 C   0  0  0  0  0  2  0  0  0  0  0  0
   16.2360   15.7150   16.0090 C   0  0  0  0  0  2  0  0  0  0  0  0
   14.7620   15.7810   15.6430 C   0  0  0  0  0  1  0  0  0  0  0  0
   17.9350   15.9410   13.8930 C   0  0  0  0  0  2  0  0  0  0  0  0
   17.4640   15.9880   12.4520 C   0  0  0  0  0  0  0  0  0  0  0  0
   16.1210   16.1320   12.0750 C   0  0  0  0  0  3  0  0  0  0  0  0
   18.4320   15.8880   11.4360 C   0  0  0  0  0  3  0  0  0  0  0  0
   15.7560   16.1750   10.7270 C   0  0  0  0  0  3  0  0  0  0  0  0
   18.0660   15.9310   10.0890 C   0  0  0  0  0  3  0  0  0  0  0  0
   16.7280   16.0750    9.7340 C   0  0  0  0  0  3  0  0  0  0  0  0
   21.2300   13.4600   13.3180 C   0  0  0  0  0  0  0  0  0  0  0  0
   21.7450   14.2400   12.2750 C   0  0  0  0  0  3  0  0  0  0  0  0
   21.7560   12.1860   13.5230 C   0  0  0  0  0  3  0  0  0  0  0  0
   22.8020   13.7760   11.4820 C   0  0  0  0  0  3  0  0  0  0  0  0
   22.8140   11.7170   12.7330 C   0  0  0  0  0  3  0  0  0  0  0  0
   23.3490   12.5110   11.7130 C   0  0  0  0  0  0  0  0  0  0  0  0
   24.4730   11.9650   10.8970 C   0  0  0  0  0  0  0  0  0  0  0  0
   25.2110   12.7300   10.2800 O   0  0  0  0  0  0  0  0  0  0  0  0
   24.6880   10.4750   10.8540 C   0  0  0  0  0  1  0  0  0  0  0  0
  1  5  1  0
  2  1  2  0
  3  1  1  0
  3  4  1  0
  5  6  1  0
  6  7  1  0
  8  7  1  0
  9  5  1  0
 10  9  1  0
 11 10  2  0
 12 10  1  0
 13 11  1  0
 14 12  2  0
 15 14  1  0
 15 13  2  0
 16 18  2  0
 16  3  1  0
 17 16  1  0
 19 21  1  0
 19 17  2  0
 20 18  1  0
 21 20  2  0
 22 21  1  0
 23 22  2  0
 24 22  1  0
M  RAD  8   6   3   7   3   8   2   9   3  11   2  12   2  13   2  14   2
M  RAD  6  15   2  17   2  18   2  19   2  20   2  24   2
M  END
>  <vina_score>  (1) 
-6.5499999999999998

>  <pose_id>  (1) 
1

$$$$

     RDKit          3D

 24 25  0  0  0  0  0  0  0  0999 V2000
   19.6410   10.4850   17.8670 C   0  0  0  0  0  0  0  0  0  0  0  0
   19.2950    9.3640   16.6560 S   0  0  0  0  0  0  0  0  0  0  0  0
   19.3900   11.8490   17.7450 N   0  0  0  0  0  0  0  0  0  0  0  0
   20.1240   12.4320   18.1260 H   0  0  0  0  0  0  0  0  0  0  0  0
   20.2820   10.1500   19.0900 N   0  0  0  0  0  0  0  0  0  0  0  0
   21.6880   10.5190   19.3700 C   0  0  0  0  0  2  0  0  0  0  0  0
   22.6890    9.6510   18.6090 C   0  0  0  0  0  2  0  0  0  0  0  0
   23.3260   10.4140   17.4590 C   0  0  0  0  0  1  0  0  0  0  0  0
   19.6440    9.3070   20.1170 C   0  0  0  0  0  2  0  0  0  0  0  0
   18.7470   10.0210   21.1100 C   0  0  0  0  0  0  0  0  0  0  0  0
   19.2200   10.9100   22.0870 C   0  0  0  0  0  3  0  0  0  0  0  0
   17.3630    9.7840   21.0420 C   0  0  0  0  0  3  0  0  0  0  0  0
   18.3380   11.5400   22.9690 C   0  0  0  0  0  3  0  0  0  0  0  0
   16.4820   10.4140   21.9230 C   0  0  0  0  0  3  0  0  0  0  0  0
   16.9700   11.2930   22.8860 C   0  0  0  0  0  3  0  0  0  0  0  0
   18.4520   12.5520   16.9570 C   0  0  0  0  0  0  0  0  0  0  0  0
   17.1000   12.4130   17.2980 C   0  0  0  0  0  3  0  0  0  0  0  0
   18.7850   13.2940   15.8250 C   0  0  0  0  0  3  0  0  0  0  0  0
   16.1000   13.0460   16.5490 C   0  0  0  0  0  3  0  0  0  0  0  0
   17.7880   13.9300   15.0740 C   0  0  0  0  0  3  0  0  0  0  0  0
   16.4410   13.8170   15.4350 C   0  0  0  0  0  0  0  0  0  0  0  0
   15.4160   14.5110   14.6000 C   0  0  0  0  0  0  0  0  0  0  0  0
   14.8830   15.5380   15.0110 O   0  0  0  0  0  0  0  0  0  0  0  0
   15.0610   13.9360   13.2530 C   0  0  0  0  0  1  0  0  0  0  0  0
  1  5  1  0
  2  1  2  0
  3  1  1  0
  3  4  1  0
  5  6  1  0
  5  9  1  0
  7  6  1  0
  8  7  1  0
  9 10  1  0
 10 11  2  0
 11 13  1  0
 12 10  1  0
 12 14  2  0
 14 15  1  0
 15 13  2  0
 16 17  1  0
 16  3  1  0
 18 16  2  0
 19 17  2  0
 20 21  2  0
 20 18  1  0
 21 19  1  0
 22 23  2  0
 22 21  1  0
 24 22  1  0
M  RAD  8   6   3   7   3   8   2   9   3  11   2  12   2  13   2  14   2
M  RAD  6  15   2  17   2  18   2  19   2  20   2  24   2
M  END
>  <vina_score>  (2) 
-6.5449999999999999

>  <pose_id>  (2) 
2

$$$$

     RDKit          3D

 24 25  0  0  0  0  0  0  0  0999 V2000
   21.9290    9.6570   17.4610 C   0  0  0  0  0  0  0  0  0  0  0  0
   21.0830    8.2000   17.5000 S   0  0  0  0  0  0  0  0  0  0  0  0
   21.4810   10.8220   18.0780 N   0  0  0  0  0  0  0  0  0  0  0  0
   21.6340   11.6570   17.5280 H   0  0  0  0  0  0  0  0  0  0  0  0
   23.1370    9.8460   16.7390 N   0  0  0  0  0  0  0  0  0  0  0  0
   23.9700    8.7100   16.2840 C   0  0  0  0  0  2  0  0  0  0  0  0
   25.4480    8.8870   16.6280 C   0  0  0  0  0  2  0  0  0  0  0  0
   26.3190    8.8250   15.3830 C   0  0  0  0  0  1  0  0  0  0  0  0
   23.7170   11.1790   16.4940 C   0  0  0  0  0  2  0  0  0  0  0  0
   23.5010   11.7620   15.1100 C   0  0  0  0  0  0  0  0  0  0  0  0
   22.2680   11.7420   14.4400 C   0  0  0  0  0  3  0  0  0  0  0  0
   24.5980   12.3610   14.4650 C   0  0  0  0  0  3  0  0  0  0  0  0
   22.1360   12.3030   13.1670 C   0  0  0  0  0  3  0  0  0  0  0  0
   24.4650   12.9220   13.1930 C   0  0  0  0  0  3  0  0  0  0  0  0
   23.2340   12.8930   12.5440 C   0  0  0  0  0  3  0  0  0  0  0  0
   20.6220   11.0140   19.1820 C   0  0  0  0  0  0  0  0  0  0  0  0
   21.0880   10.5960   20.4350 C   0  0  0  0  0  3  0  0  0  0  0  0
   19.3220   11.5080   19.0830 C   0  0  0  0  0  3  0  0  0  0  0  0
   20.2880   10.7160   21.5790 C   0  0  0  0  0  3  0  0  0  0  0  0
   18.5180   11.6310   20.2230 C   0  0  0  0  0  3  0  0  0  0  0  0
   18.9980   11.2440   21.4790 C   0  0  0  0  0  0  0  0  0  0  0  0
   18.1020   11.3910   22.6640 C   0  0  0  0  0  0  0  0  0  0  0  0
   18.5440   11.8510   23.7140 O   0  0  0  0  0  0  0  0  0  0  0  0
   16.6590   10.9790   22.5430 C   0  0  0  0  0  1  0  0  0  0  0  0
  1  2  2  0
  1  3  1  0
  3 16  1  0
  4  3  1  0
  5  1  1  0
  6  7  1  0
  6  5  1  0
  8  7  1  0
  9  5  1  0
 10  9  1  0
 11 10  2  0
 12 10  1  0
 13 11  1  0
 14 12  2  0
 15 13  2  0
 15 14  1  0
 16 17  1  0
 17 19  2  0
 18 16  2  0
 18 20  1  0
 20 21  2  0
 21 19  1  0
 21 22  1  0
 22 23  2  0
 24 22  1  0
M  RAD  8   6   3   7   3   8   2   9   3  11   2  12   2  13   2  14   2
M  RAD  6  15   2  17   2  18   2  19   2  20   2  24   2
M  END
>  <vina_score>  (3) 
-6.3150000000000004

>  <pose_id>  (3) 
3

$$$$

     RDKit          3D

 24 25  0  0  0  0  0  0  0  0999 V2000
   19.1480   12.2850   15.8280 C   0  0  0  0  0  0  0  0  0  0  0  0
   19.5490   10.9010   14.9520 S   0  0  0  0  0  0  0  0  0  0  0  0
   19.5590   13.5660   15.4690 N   0  0  0  0  0  0  0  0  0  0  0  0
   19.8380   14.1380   16.2550 H   0  0  0  0  0  0  0  0  0  0  0  0
   18.4170   12.2620   17.0450 N   0  0  0  0  0  0  0  0  0  0  0  0
   19.0650   11.9920   18.3490 C   0  0  0  0  0  2  0  0  0  0  0  0
   18.1140   11.3490   19.3580 C   0  0  0  0  0  2  0  0  0  0  0  0
   18.4850   11.7200   20.7850 C   0  0  0  0  0  1  0  0  0  0  0  0
   16.9480   12.3800   17.0930 C   0  0  0  0  0  2  0  0  0  0  0  0
   16.3010   13.1700   15.9720 C   0  0  0  0  0  0  0  0  0  0  0  0
   16.1060   14.5590   16.0100 C   0  0  0  0  0  3  0  0  0  0  0  0
   15.8790   12.4710   14.8270 C   0  0  0  0  0  3  0  0  0  0  0  0
   15.5080   15.2270   14.9380 C   0  0  0  0  0  3  0  0  0  0  0  0
   15.2820   13.1400   13.7560 C   0  0  0  0  0  3  0  0  0  0  0  0
   15.0970   14.5180   13.8120 C   0  0  0  0  0  3  0  0  0  0  0  0
   19.9130   14.1070   14.2140 C   0  0  0  0  0  0  0  0  0  0  0  0
   18.8750   14.3370   13.3010 C   0  0  0  0  0  3  0  0  0  0  0  0
   21.2260   14.3420   13.8080 C   0  0  0  0  0  3  0  0  0  0  0  0
   19.1400   14.8390   12.0210 C   0  0  0  0  0  3  0  0  0  0  0  0
   21.4960   14.8440   12.5290 C   0  0  0  0  0  3  0  0  0  0  0  0
   20.4550   15.1040   11.6300 C   0  0  0  0  0  0  0  0  0  0  0  0
   20.7940   15.6370   10.2770 C   0  0  0  0  0  0  0  0  0  0  0  0
   19.9250   15.7140    9.4120 O   0  0  0  0  0  0  0  0  0  0  0  0
   22.2060   16.0820   10.0010 C   0  0  0  0  0  1  0  0  0  0  0  0
  1  5  1  0
  2  1  2  0
  3  1  1  0
  3  4  1  0
  5  9  1  0
  5  6  1  0
  6  7  1  0
  7  8  1  0
 10 11  2  0
 10  9  1  0
 12 10  1  0
 13 11  1  0
 14 15  1  0
 14 12  2  0
 15 13  2  0
 16  3  1  0
 17 16  1  0
 18 16  2  0
 19 17  2  0
 20 18  1  0
 21 19  1  0
 21 20  2  0
 22 21  1  0
 23 22  2  0
 24 22  1  0
M  RAD  8   6   3   7   3   8   2   9   3  11   2  12   2  13   2  14   2
M  RAD  6  15   2  17   2  18   2  19   2  20   2  24   2
M  END
>  <vina_score>  (4) 
-6.3019999999999996

>  <pose_id>  (4) 
4

$$$$

     RDKit          3D

 24 25  0  0  0  0  0  0  0  0999 V2000
   19.2250   11.0970   17.0490 C   0  0  0  0  0  0  0  0  0  0  0  0
   18.8130    9.7470   16.1260 S   0  0  0  0  0  0  0  0  0  0  0  0
   19.1550   12.4030   16.5730 N   0  0  0  0  0  0  0  0  0  0  0  0
   19.9320   12.9820   16.8620 H   0  0  0  0  0  0  0  0  0  0  0  0
   19.7440   11.0180   18.3680 N   0  0  0  0  0  0  0  0  0  0  0  0
   20.5460    9.8630   18.8330 C   0  0  0  0  0  2  0  0  0  0  0  0
   21.8910   10.2780   19.4260 C   0  0  0  0  0  2  0  0  0  0  0  0
   23.0050   10.1840   18.3950 C   0  0  0  0  0  1  0  0  0  0  0  0
   19.4260   12.0130   19.4090 C   0  0  0  0  0  2  0  0  0  0  0  0
   18.4050   11.5930   20.4490 C   0  0  0  0  0  0  0  0  0  0  0  0
   17.1770   10.9900   20.1360 C   0  0  0  0  0  3  0  0  0  0  0  0
   18.7100   11.8140   21.8040 C   0  0  0  0  0  3  0  0  0  0  0  0
   16.2830   10.6210   21.1450 C   0  0  0  0  0  3  0  0  0  0  0  0
   17.8170   11.4450   22.8110 C   0  0  0  0  0  3  0  0  0  0  0  0
   16.6030   10.8480   22.4820 C   0  0  0  0  0  3  0  0  0  0  0  0
   18.3610   12.9770   15.5560 C   0  0  0  0  0  0  0  0  0  0  0  0
   19.0090   13.3390   14.3670 C   0  0  0  0  0  3  0  0  0  0  0  0
   17.0080   13.2780   15.6980 C   0  0  0  0  0  3  0  0  0  0  0  0
   18.3070   13.9460   13.3190 C   0  0  0  0  0  3  0  0  0  0  0  0
   16.3000   13.8850   14.6530 C   0  0  0  0  0  3  0  0  0  0  0  0
   16.9420   14.2160   13.4540 C   0  0  0  0  0  0  0  0  0  0  0  0
   16.1450   14.8640   12.3710 C   0  0  0  0  0  0  0  0  0  0  0  0
   16.5650   15.8830   11.8270 O   0  0  0  0  0  0  0  0  0  0  0  0
   14.8370   14.2440   11.9570 C   0  0  0  0  0  1  0  0  0  0  0  0
  1  5  1  0
  2  1  2  0
  3  4  1  0
  3  1  1  0
  5  6  1  0
  5  9  1  0
  6  7  1  0
  8  7  1  0
  9 10  1  0
 10 12  1  0
 11 10  2  0
 11 13  1  0
 12 14  2  0
 13 15  2  0
 15 14  1  0
 16 18  2  0
 16  3  1  0
 17 16  1  0
 19 21  1  0
 19 17  2  0
 20 18  1  0
 21 20  2  0
 22 21  1  0
 23 22  2  0
 24 22  1  0
M  RAD  8   6   3   7   3   8   2   9   3  11   2  12   2  13   2  14   2
M  RAD  6  15   2  17   2  18   2  19   2  20   2  24   2
M  END
>  <vina_score>  (5) 
-6.234

>  <pose_id>  (5) 
5

$$$$
