
     RDKit          3D

 27 29  0  0  1  0  0  0  0  0999 V2000
   24.1340   10.5580   14.5030 C   0  0  1  0  0  0  0  0  0  0  0  0
   23.8760   11.9140   15.1880 C   0  0  0  0  0  1  0  0  0  0  0  0
   25.6000   10.1190   14.7380 C   0  0  0  0  0  2  0  0  0  0  0  0
   25.8560    9.6830   16.1780 C   0  0  0  0  0  2  0  0  0  0  0  0
   24.8340    8.6470   16.6440 C   0  0  0  0  0  2  0  0  0  0  0  0
   23.4560    9.1430   16.4740 N   0  0  0  0  0  0  0  0  0  0  0  0
   23.1960    9.4590   15.0570 C   0  0  0  0  0  2  0  0  0  0  0  0
   23.8820   10.6980   12.9870 C   0  0  0  0  0  0  0  0  0  0  0  0
   24.4570   11.8000   12.3890 N   0  0  0  0  0  0  0  0  0  0  0  0
   23.2040    9.8960   12.3490 O   0  0  0  0  0  0  0  0  0  0  0  0
   24.9860   12.4600   12.9430 H   0  0  0  0  0  0  0  0  0  0  0  0
   24.2590   12.1040   10.9860 C   0  0  0  0  0  2  0  0  0  0  0  0
   23.7060   13.5110   10.7660 C   0  0  0  0  0  2  0  0  0  0  0  0
   22.6510   13.8940   11.7930 C   0  0  0  0  0  1  0  0  0  0  0  0
   22.4740    8.1530   16.9600 C   0  0  0  0  0  2  0  0  0  0  0  0
   21.5200    8.7100   17.9950 C   0  0  0  0  0  0  0  0  0  0  0  0
   20.3380    8.0300   18.3160 C   0  0  0  0  0  3  0  0  0  0  0  0
   21.8130    9.9000   18.6710 C   0  0  0  0  0  3  0  0  0  0  0  0
   19.4630    8.5360   19.2820 C   0  0  0  0  0  3  0  0  0  0  0  0
   20.9370   10.4030   19.6390 C   0  0  0  0  0  3  0  0  0  0  0  0
   19.7470    9.7320   19.9610 C   0  0  0  0  0  0  0  0  0  0  0  0
   18.8250   10.2650   20.9780 C   0  0  0  0  0  0  0  0  0  0  0  0
   19.2870   11.0990   22.0090 C   0  0  0  0  0  3  0  0  0  0  0  0
   17.4550    9.9530   20.9470 C   0  0  0  0  0  3  0  0  0  0  0  0
   18.4140   11.6040   22.9750 C   0  0  0  0  0  3  0  0  0  0  0  0
   16.5790   10.4580   21.9120 C   0  0  0  0  0  3  0  0  0  0  0  0
   17.0590   11.2840   22.9250 C   0  0  0  0  0  3  0  0  0  0  0  0
  1  3  1  0
  1  7  1  0
  1  2  1  1
  3  4  1  0
  4  5  1  0
  6  5  1  0
  6 15  1  0
  7  6  1  0
  8  1  1  0
  9 11  1  0
  9  8  1  0
 10  8  2  0
 12  9  1  0
 13 12  1  0
 13 14  1  0
 15 16  1  0
 16 17  1  0
 16 18  2  0
 17 19  2  0
 18 20  1  0
 19 21  1  0
 20 21  2  0
 21 22  1  0
 22 23  2  0
 23 25  1  0
 24 22  1  0
 24 26  2  0
 26 27  1  0
 27 25  2  0
M  RAD  8   2   2   3   3   4   3   5   3   7   3  12   3  13   3  14   2
M  RAD  8  15   3  17   2  18   2  19   2  20   2  23   2  24   2  25   2
M  RAD  2  26   2  27   2
M  END
>  <vina_score>  (1) 
-7.5960000000000001

>  <pose_id>  (1) 
1

$$$$

     RDKit          3D

 27 29  0  0  1  0  0  0  0  0999 V2000
   19.7890   10.0150   19.5680 C   0  0  1  0  0  0  0  0  0  0  0  0
   18.8020   10.6920   18.5970 C   0  0  0  0  0  1  0  0  0  0  0  0
   19.6100    8.4780   19.5150 C   0  0  0  0  0  2  0  0  0  0  0  0
   20.1400    7.8730   18.2170 C   0  0  0  0  0  2  0  0  0  0  0  0
   21.5700    8.3250   17.9260 C   0  0  0  0  0  2  0  0  0  0  0  0
   21.6720    9.7950   17.9090 N   0  0  0  0  0  0  0  0  0  0  0  0
   21.2560   10.3540   19.2100 C   0  0  0  0  0  2  0  0  0  0  0  0
   19.5100   10.5100   21.0030 C   0  0  0  0  0  0  0  0  0  0  0  0
   18.4450   11.3760   21.1350 N   0  0  0  0  0  0  0  0  0  0  0  0
   20.1930   10.1730   21.9670 O   0  0  0  0  0  0  0  0  0  0  0  0
   17.9170   11.6590   20.3200 H   0  0  0  0  0  0  0  0  0  0  0  0
   18.0950   11.9760   22.4070 C   0  0  0  0  0  2  0  0  0  0  0  0
   16.9210   11.2710   23.0830 C   0  0  0  0  0  2  0  0  0  0  0  0
   15.9830   10.6080   22.0850 C   0  0  0  0  0  1  0  0  0  0  0  0
   23.0480   10.2270   17.5910 C   0  0  0  0  0  2  0  0  0  0  0  0
   23.1690   10.9130   16.2460 C   0  0  0  0  0  0  0  0  0  0  0  0
   22.0930   10.9210   15.3490 C   0  0  0  0  0  3  0  0  0  0  0  0
   24.3480   11.5740   15.8850 C   0  0  0  0  0  3  0  0  0  0  0  0
   22.1980   11.5670   14.1140 C   0  0  0  0  0  3  0  0  0  0  0  0
   24.4500   12.2220   14.6500 C   0  0  0  0  0  3  0  0  0  0  0  0
   23.3790   12.2290   13.7420 C   0  0  0  0  0  0  0  0  0  0  0  0
   23.4910   12.9080   12.4400 C   0  0  0  0  0  0  0  0  0  0  0  0
   24.4980   12.5600   11.5250 C   0  0  0  0  0  3  0  0  0  0  0  0
   22.5930   13.9260   12.0750 C   0  0  0  0  0  3  0  0  0  0  0  0
   24.6070   13.2050   10.2910 C   0  0  0  0  0  3  0  0  0  0  0  0
   22.6990   14.5710   10.8400 C   0  0  0  0  0  3  0  0  0  0  0  0
   23.7050   14.2100    9.9480 C   0  0  0  0  0  3  0  0  0  0  0  0
  1  2  1  6
  1  8  1  0
  3  1  1  0
  4  3  1  0
  5  4  1  0
  6  5  1  0
  6  7  1  0
  7  1  1  0
  8  9  1  0
  8 10  2  0
  9 12  1  0
 11  9  1  0
 12 13  1  0
 14 13  1  0
 15  6  1  0
 16 15  1  0
 17 16  1  0
 18 16  2  0
 19 17  2  0
 20 18  1  0
 21 19  1  0
 21 20  2  0
 22 21  1  0
 23 22  2  0
 24 22  1  0
 25 23  1  0
 26 24  2  0
 27 25  2  0
 27 26  1  0
M  RAD  8   2   2   3   3   4   3   5   3   7   3  12   3  13   3  14   2
M  RAD  8  15   3  17   2  18   2  19   2  20   2  23   2  24   2  25   2
M  RAD  2  26   2  27   2
M  END
>  <vina_score>  (2) 
-7.5229999999999997

>  <pose_id>  (2) 
2

$$$$

     RDKit          3D

 27 29  0  0  1  0  0  0  0  0999 V2000
   21.8620    9.7070   17.8890 C   0  0  1  0  0  0  0  0  0  0  0  0
   20.4890    9.8690   17.2080 C   0  0  0  0  0  1  0  0  0  0  0  0
   22.2800    8.2160   17.8810 C   0  0  0  0  0  2  0  0  0  0  0  0
   22.6730    7.7260   16.4900 C   0  0  0  0  0  2  0  0  0  0  0  0
   23.7040    8.6460   15.8380 C   0  0  0  0  0  2  0  0  0  0  0  0
   23.2260   10.0390   15.7970 N   0  0  0  0  0  0  0  0  0  0  0  0
   22.9530   10.5280   17.1620 C   0  0  0  0  0  2  0  0  0  0  0  0
   21.7680   10.2010   19.3470 C   0  0  0  0  0  0  0  0  0  0  0  0
   20.6610    9.7720   20.0490 N   0  0  0  0  0  0  0  0  0  0  0  0
   22.6080   10.9400   19.8540 O   0  0  0  0  0  0  0  0  0  0  0  0
   19.9690    9.1880   19.5980 H   0  0  0  0  0  0  0  0  0  0  0  0
   20.3980   10.2010   21.4080 C   0  0  0  0  0  2  0  0  0  0  0  0
   19.4360   11.3860   21.4700 C   0  0  0  0  0  2  0  0  0  0  0  0
   18.2680   11.2450   20.5050 C   0  0  0  0  0  1  0  0  0  0  0  0
   24.2100   10.9170   15.1330 C   0  0  0  0  0  2  0  0  0  0  0  0
   23.5890   11.8750   14.1390 C   0  0  0  0  0  0  0  0  0  0  0  0
   22.2280   11.7880   13.8170 C   0  0  0  0  0  3  0  0  0  0  0  0
   24.3560   12.8830   13.5430 C   0  0  0  0  0  3  0  0  0  0  0  0
   21.6500   12.6820   12.9100 C   0  0  0  0  0  3  0  0  0  0  0  0
   23.7750   13.7780   12.6380 C   0  0  0  0  0  3  0  0  0  0  0  0
   22.4130   13.6930   12.3040 C   0  0  0  0  0  0  0  0  0  0  0  0
   21.8050   14.6330   11.3490 C   0  0  0  0  0  0  0  0  0  0  0  0
   20.4440   14.9730   11.4340 C   0  0  0  0  0  3  0  0  0  0  0  0
   22.5670   15.2180   10.3230 C   0  0  0  0  0  3  0  0  0  0  0  0
   19.8650   15.8640   10.5270 C   0  0  0  0  0  3  0  0  0  0  0  0
   21.9890   16.1100    9.4150 C   0  0  0  0  0  3  0  0  0  0  0  0
   20.6390   16.4330    9.5180 C   0  0  0  0  0  3  0  0  0  0  0  0
  1  2  1  6
  1  8  1  0
  3  1  1  0
  4  3  1  0
  5  4  1  0
  6  5  1  0
  6  7  1  0
  7  1  1  0
  8 10  2  0
  8  9  1  0
  9 12  1  0
 11  9  1  0
 12 13  1  0
 14 13  1  0
 15  6  1  0
 16 15  1  0
 17 16  1  0
 18 16  2  0
 19 17  2  0
 20 18  1  0
 21 20  2  0
 21 19  1  0
 22 23  2  0
 22 21  1  0
 24 22  1  0
 25 23  1  0
 26 27  1  0
 26 24  2  0
 27 25  2  0
M  RAD  8   2   2   3   3   4   3   5   3   7   3  12   3  13   3  14   2
M  RAD  8  15   3  17   2  18   2  19   2  20   2  23   2  24   2  25   2
M  RAD  2  26   2  27   2
M  END
>  <vina_score>  (3) 
-7.1299999999999999

>  <pose_id>  (3) 
3

$$$$

     RDKit          3D

 27 29  0  0  1  0  0  0  0  0999 V2000
   20.3200   10.3570   18.7270 C   0  0  1  0  0  0  0  0  0  0  0  0
   19.0770   10.8620   17.9680 C   0  0  0  0  0  1  0  0  0  0  0  0
   20.2790    8.8130   18.8360 C   0  0  0  0  0  2  0  0  0  0  0  0
   20.5510    8.1250   17.5010 C   0  0  0  0  0  2  0  0  0  0  0  0
   21.8270    8.6510   16.8450 C   0  0  0  0  0  2  0  0  0  0  0  0
   21.7840   10.1160   16.6900 N   0  0  0  0  0  0  0  0  0  0  0  0
   21.6270   10.7660   18.0050 C   0  0  0  0  0  2  0  0  0  0  0  0
   20.3330   10.9670   20.1430 C   0  0  0  0  0  0  0  0  0  0  0  0
   19.2190   10.7010   20.9140 N   0  0  0  0  0  0  0  0  0  0  0  0
   21.2590   11.6570   20.5620 O   0  0  0  0  0  0  0  0  0  0  0  0
   18.4580   10.1550   20.5340 H   0  0  0  0  0  0  0  0  0  0  0  0
   19.0540   11.2560   22.2430 C   0  0  0  0  0  2  0  0  0  0  0  0
   17.5880   11.3330   22.6650 C   0  0  0  0  0  2  0  0  0  0  0  0
   17.3870   12.1310   23.9450 C   0  0  0  0  0  1  0  0  0  0  0  0
   23.0030   10.6140   16.0230 C   0  0  0  0  0  2  0  0  0  0  0  0
   22.7190   11.5890   14.8990 C   0  0  0  0  0  0  0  0  0  0  0  0
   23.7590   12.3120   14.3010 C   0  0  0  0  0  3  0  0  0  0  0  0
   21.4160   11.7660   14.4190 C   0  0  0  0  0  3  0  0  0  0  0  0
   23.4990   13.2010   13.2530 C   0  0  0  0  0  3  0  0  0  0  0  0
   21.1600   12.6540   13.3690 C   0  0  0  0  0  3  0  0  0  0  0  0
   22.1950   13.3880   12.7680 C   0  0  0  0  0  0  0  0  0  0  0  0
   21.9220   14.3250   11.6660 C   0  0  0  0  0  0  0  0  0  0  0  0
   22.9060   14.6250   10.7100 C   0  0  0  0  0  3  0  0  0  0  0  0
   20.6690   14.9490   11.5390 C   0  0  0  0  0  3  0  0  0  0  0  0
   22.6500   15.5160    9.6650 C   0  0  0  0  0  3  0  0  0  0  0  0
   20.4100   15.8390   10.4940 C   0  0  0  0  0  3  0  0  0  0  0  0
   21.4000   16.1220    9.5570 C   0  0  0  0  0  3  0  0  0  0  0  0
  1  2  1  6
  1  3  1  0
  1  8  1  0
  4  3  1  0
  5  4  1  0
  6  5  1  0
  6  7  1  0
  7  1  1  0
  8 10  2  0
  8  9  1  0
  9 12  1  0
 11  9  1  0
 12 13  1  0
 13 14  1  0
 15  6  1  0
 16 15  1  0
 17 16  1  0
 18 16  2  0
 19 17  2  0
 20 18  1  0
 21 19  1  0
 21 20  2  0
 22 21  1  0
 23 22  2  0
 24 22  1  0
 25 23  1  0
 26 24  2  0
 27 25  2  0
 27 26  1  0
M  RAD  8   2   2   3   3   4   3   5   3   7   3  12   3  13   3  14   2
M  RAD  8  15   3  17   2  18   2  19   2  20   2  23   2  24   2  25   2
M  RAD  2  26   2  27   2
M  END
>  <vina_score>  (4) 
-7.0449999999999999

>  <pose_id>  (4) 
4

$$$$

     RDKit          3D

 27 29  0  0  1  0  0  0  0  0999 V2000
   19.2490   14.5810   13.8730 C   0  0  1  0  0  0  0  0  0  0  0  0
   20.0850   15.2980   14.9510 C   0  0  0  0  0  1  0  0  0  0  0  0
   20.0870   14.4120   12.5820 C   0  0  0  0  0  2  0  0  0  0  0  0
   21.1860   13.3630   12.7310 C   0  0  0  0  0  2  0  0  0  0  0  0
   20.6360   12.0440   13.2720 C   0  0  0  0  0  2  0  0  0  0  0  0
   19.9160   12.2450   14.5410 N   0  0  0  0  0  0  0  0  0  0  0  0
   18.7920   13.1820   14.3500 C   0  0  0  0  0  2  0  0  0  0  0  0
   17.9950   15.4230   13.5590 C   0  0  0  0  0  0  0  0  0  0  0  0
   17.6100   15.4420   12.2340 N   0  0  0  0  0  0  0  0  0  0  0  0
   17.3840   16.0510   14.4200 O   0  0  0  0  0  0  0  0  0  0  0  0
   18.1480   14.9410   11.5420 H   0  0  0  0  0  0  0  0  0  0  0  0
   16.4900   16.2390   11.7710 C   0  0  0  0  0  2  0  0  0  0  0  0
   15.4160   15.3940   11.0880 C   0  0  0  0  0  2  0  0  0  0  0  0
   14.9730   14.2110   11.9360 C   0  0  0  0  0  1  0  0  0  0  0  0
   19.4190   10.9620   15.0780 C   0  0  0  0  0  2  0  0  0  0  0  0
   19.0100   11.0360   16.5340 C   0  0  0  0  0  0  0  0  0  0  0  0
   17.6580   11.0110   16.8980 C   0  0  0  0  0  3  0  0  0  0  0  0
   19.9760   11.1040   17.5450 C   0  0  0  0  0  3  0  0  0  0  0  0
   17.2800   11.0640   18.2430 C   0  0  0  0  0  3  0  0  0  0  0  0
   19.5950   11.1540   18.8900 C   0  0  0  0  0  3  0  0  0  0  0  0
   18.2420   11.1370   19.2630 C   0  0  0  0  0  0  0  0  0  0  0  0
   17.8430   11.1940   20.6790 C   0  0  0  0  0  0  0  0  0  0  0  0
   18.7430   11.6240   21.6680 C   0  0  0  0  0  3  0  0  0  0  0  0
   16.5500   10.8190   21.0840 C   0  0  0  0  0  3  0  0  0  0  0  0
   18.3670   11.6770   23.0130 C   0  0  0  0  0  3  0  0  0  0  0  0
   16.1720   10.8720   22.4280 C   0  0  0  0  0  3  0  0  0  0  0  0
   17.0800   11.3020   23.3920 C   0  0  0  0  0  3  0  0  0  0  0  0
  1  7  1  0
  1  2  1  1
  3  4  1  0
  3  1  1  0
  4  5  1  0
  5  6  1  0
  6 15  1  0
  7  6  1  0
  8  1  1  0
  8 10  2  0
  9  8  1  0
 11  9  1  0
 12  9  1  0
 13 12  1  0
 13 14  1  0
 15 16  1  0
 16 17  1  0
 16 18  2  0
 17 19  2  0
 18 20  1  0
 19 21  1  0
 20 21  2  0
 21 22  1  0
 22 24  1  0
 22 23  2  0
 23 25  1  0
 24 26  2  0
 25 27  2  0
 26 27  1  0
M  RAD  8   2   2   3   3   4   3   5   3   7   3  12   3  13   3  14   2
M  RAD  8  15   3  17   2  18   2  19   2  20   2  23   2  24   2  25   2
M  RAD  2  26   2  27   2
M  END
>  <vina_score>  (5) 
-7.0439999999999996

>  <pose_id>  (5) 
5

$$$$
