
     RDKit          3D

 22 26  0  0  1  0  0  0  0  0999 V2000
   24.8420   10.8160   12.8470 C   0  0  0  0  0  1  0  0  0  0  0  0
   24.2130   10.5480   14.2350 C   0  0  2  0  0  0  0  0  0  0  0  0
   22.9680    9.6740   14.0610 C   0  0  0  0  0  2  0  0  0  0  0  0
   21.7780   10.4760   13.4890 C   0  0  0  0  0  2  0  0  0  0  0  0
   21.4150   11.7350   14.3320 C   0  0  0  0  0  3  0  0  0  0  0  0
   22.6630   12.6410   14.5480 C   0  0  0  0  0  3  0  0  0  0  0  0
   22.9770   13.4840   13.3170 C   0  0  0  0  0  2  0  0  0  0  0  0
   21.7830   14.3280   12.9120 C   0  0  0  0  0  2  0  0  0  0  0  0
   20.5070   13.4990   12.6350 C   0  0  0  0  0  3  0  0  0  0  0  0
   19.4290   14.5060   12.2960 C   0  0  0  0  0  3  0  0  0  0  0  0
   18.0830   14.0450   12.2200 O   0  0  0  0  0  0  0  0  0  0  0  0
   18.4130   14.9000   13.3340 C   0  0  0  0  0  3  0  0  0  0  0  0
   18.3270   14.2100   14.6560 C   0  0  0  0  0  2  0  0  0  0  0  0
   19.5790   13.3950   14.9980 C   0  0  0  0  0  2  0  0  0  0  0  0
   20.1440   12.5390   13.8200 C   0  0  2  0  0  0  0  0  0  0  0  0
   19.0590   11.5090   13.3990 C   0  0  0  0  0  1  0  0  0  0  0  0
   23.8170   11.7800   15.0750 C   0  0  0  0  0  3  0  0  0  0  0  0
   25.1520   12.4220   15.4390 C   0  0  0  0  0  2  0  0  0  0  0  0
   26.0950   11.2170   15.6220 C   0  0  0  0  0  2  0  0  0  0  0  0
   25.2930    9.9740   15.1830 C   0  0  0  0  0  3  0  0  0  0  0  0
   26.1400    9.0090   14.5930 O   0  0  0  0  0  0  0  0  0  0  0  0
   27.0270    9.4020   14.5240 H   0  0  0  0  0  0  0  0  0  0  0  0
  2  1  1  6
  2 17  1  0
 20  2  1  6
  3  2  1  0
  4  3  1  0
  5  4  1  0
  5  6  1  0
  6  7  1  0
  6 17  1  1
  8  7  1  0
  9  8  1  0
  9 15  1  0
 10 11  1  0
 10  9  1  1
 10 12  1  0
 12 11  1  0
 12 13  1  0
 13 14  1  0
 15 16  1  6
  5 15  1  0
 15 14  1  0
 17 18  1  0
 19 18  1  0
 20 21  1  0
 20 19  1  0
 22 21  1  0
M  END
>  <vina_score>  (1) 
-6.8890000000000002

>  <pose_id>  (1) 
1

$$$$

     RDKit          3D

 22 26  0  0  1  0  0  0  0  0999 V2000
   22.6840   15.7980   12.7220 C   0  0  0  0  0  1  0  0  0  0  0  0
   21.9330   14.6740   11.9690 C   0  0  2  0  0  0  0  0  0  0  0  0
   20.7660   14.1850   12.8330 C   0  0  0  0  0  2  0  0  0  0  0  0
   21.2500   13.3060   14.0070 C   0  0  0  0  0  2  0  0  0  0  0  0
   22.1120   12.0880   13.5580 C   0  0  0  0  0  3  0  0  0  0  0  0
   23.2990   12.5440   12.6600 C   0  0  0  0  0  3  0  0  0  0  0  0
   24.4450   13.1260   13.4810 C   0  0  0  0  0  2  0  0  0  0  0  0
   24.9290   12.1370   14.5240 C   0  0  0  0  0  2  0  0  0  0  0  0
   23.8170   11.6630   15.4880 C   0  0  0  0  0  3  0  0  0  0  0  0
   24.4750   10.6600   16.4120 C   0  0  0  0  0  3  0  0  0  0  0  0
   23.6360    9.8830   17.2610 O   0  0  0  0  0  0  0  0  0  0  0  0
   24.2870    9.1850   16.1800 C   0  0  0  0  0  3  0  0  0  0  0  0
   23.3350    8.6630   15.1530 C   0  0  0  0  0  2  0  0  0  0  0  0
   22.9100    9.7200   14.1270 C   0  0  0  0  0  2  0  0  0  0  0  0
   22.5580   11.1150   14.7330 C   0  0  2  0  0  0  0  0  0  0  0  0
   21.3530   10.9400   15.6980 C   0  0  0  0  0  1  0  0  0  0  0  0
   22.7590   13.4440   11.5420 C   0  0  0  0  0  3  0  0  0  0  0  0
   23.6990   13.9850   10.4690 C   0  0  0  0  0  2  0  0  0  0  0  0
   22.8500   15.0500    9.7490 C   0  0  0  0  0  2  0  0  0  0  0  0
   21.5430   15.1770   10.5590 C   0  0  0  0  0  3  0  0  0  0  0  0
   21.0520   16.5020   10.5220 O   0  0  0  0  0  0  0  0  0  0  0  0
   21.6930   17.0370   10.0230 H   0  0  0  0  0  0  0  0  0  0  0  0
  2  1  1  1
  2  3  1  0
  3  4  1  0
  5  4  1  0
  5 15  1  0
  6  7  1  1
  6  5  1  0
  7  8  1  0
  9  8  1  0
 10  9  1  0
 10 11  1  1
 12 13  1  0
 12 10  1  0
 12 11  1  0
 14 15  1  0
 14 13  1  0
 15  9  1  0
 15 16  1  1
 17 18  1  0
 17  2  1  0
  6 17  1  0
 19 18  1  1
 19 20  1  0
 20 21  1  0
 20  2  1  0
 22 21  1  0
M  END
>  <vina_score>  (2) 
-6.6299999999999999

>  <pose_id>  (2) 
2

$$$$

     RDKit          3D

 22 26  0  0  1  0  0  0  0  0999 V2000
   17.4940    9.3330   20.4730 C   0  0  0  0  0  1  0  0  0  0  0  0
   17.3740   10.8740   20.5430 C   0  0  2  0  0  0  0  0  0  0  0  0
   16.1600   11.3200   19.7220 C   0  0  0  0  0  2  0  0  0  0  0  0
   16.4340   11.2420   18.2040 C   0  0  0  0  0  2  0  0  0  0  0  0
   17.6900   12.0470   17.7550 C   0  0  0  0  0  3  0  0  0  0  0  0
   18.9430   11.6350   18.5830 C   0  0  0  0  0  3  0  0  0  0  0  0
   19.5410   10.3200   18.0960 C   0  0  0  0  0  2  0  0  0  0  0  0
   19.8890   10.3890   16.6220 C   0  0  0  0  0  2  0  0  0  0  0  0
   18.6870   10.7520   15.7200 C   0  0  0  0  0  3  0  0  0  0  0  0
   19.2350   10.8180   14.3100 C   0  0  0  0  0  3  0  0  0  0  0  0
   18.4000   11.3600   13.2920 O   0  0  0  0  0  0  0  0  0  0  0  0
   19.5410   12.1500   13.6820 C   0  0  0  0  0  3  0  0  0  0  0  0
   19.1710   13.4380   14.3430 C   0  0  0  0  0  2  0  0  0  0  0  0
   18.8520   13.2840   15.8350 C   0  0  0  0  0  2  0  0  0  0  0  0
   17.9540   12.0560   16.1890 C   0  0  2  0  0  0  0  0  0  0  0  0
   16.5880   12.2250   15.4700 C   0  0  0  0  0  1  0  0  0  0  0  0
   18.5940   11.6940   20.0750 C   0  0  0  0  0  3  0  0  0  0  0  0
   19.6600   11.4010   21.1260 C   0  0  0  0  0  2  0  0  0  0  0  0
   18.8530   11.2690   22.4320 C   0  0  0  0  0  2  0  0  0  0  0  0
   17.3660   11.3190   22.0250 C   0  0  0  0  0  3  0  0  0  0  0  0
   16.5800   10.5100   22.8770 O   0  0  0  0  0  0  0  0  0  0  0  0
   16.5890    9.6090   22.5130 H   0  0  0  0  0  0  0  0  0  0  0  0
  2  1  1  1
 20  2  1  6
  3  2  1  0
  4  3  1  0
  5  4  1  1
  6  5  1  0
  6  7  1  0
  6 17  1  0
  8  7  1  0
  9 15  1  0
  9  8  1  0
 10 11  1  0
 10  9  1  0
 12 11  1  0
 12 10  1  0
 12 13  1  1
 13 14  1  0
 14 15  1  0
 15 16  1  6
  5 15  1  0
 17  2  1  0
 17 18  1  1
 19 18  1  0
 20 19  1  0
 20 21  1  0
 22 21  1  0
M  END
>  <vina_score>  (3) 
-6.609

>  <pose_id>  (3) 
3

$$$$

     RDKit          3D

 22 26  0  0  1  0  0  0  0  0999 V2000
   18.1910   15.9690   14.3030 C   0  0  0  0  0  1  0  0  0  0  0  0
   17.7520   14.6680   13.5890 C   0  0  2  0  0  0  0  0  0  0  0  0
   17.8250   13.5030   14.5800 C   0  0  0  0  0  2  0  0  0  0  0  0
   19.2810   13.0640   14.8460 C   0  0  0  0  0  2  0  0  0  0  0  0
   20.0660   12.6950   13.5510 C   0  0  0  0  0  3  0  0  0  0  0  0
   19.9990   13.8500   12.5090 C   0  0  0  0  0  3  0  0  0  0  0  0
   20.9680   14.9790   12.8440 C   0  0  0  0  0  2  0  0  0  0  0  0
   22.3900   14.4630   12.9610 C   0  0  0  0  0  2  0  0  0  0  0  0
   22.5540   13.3380   14.0100 C   0  0  0  0  0  3  0  0  0  0  0  0
   24.0100   12.9290   13.9480 C   0  0  0  0  0  3  0  0  0  0  0  0
   24.4030   11.7500   14.6430 O   0  0  0  0  0  0  0  0  0  0  0  0
   24.4120   11.6850   13.2030 C   0  0  0  0  0  3  0  0  0  0  0  0
   23.4000   10.7380   12.6460 C   0  0  0  0  0  2  0  0  0  0  0  0
   21.9950   11.3410   12.5440 C   0  0  0  0  0  2  0  0  0  0  0  0
   21.5430   12.1610   13.7930 C   0  0  2  0  0  0  0  0  0  0  0  0
   21.5160   11.2080   15.0200 C   0  0  0  0  0  1  0  0  0  0  0  0
   18.5350   14.2660   12.3220 C   0  0  0  0  0  3  0  0  0  0  0  0
   18.1650   15.3400   11.3030 C   0  0  0  0  0  2  0  0  0  0  0  0
   16.6960   15.6640   11.6380 C   0  0  0  0  0  2  0  0  0  0  0  0
   16.3690   14.8890   12.9310 C   0  0  0  0  0  3  0  0  0  0  0  0
   15.4460   15.6030   13.7300 O   0  0  0  0  0  0  0  0  0  0  0  0
   15.9150   15.8860   14.5330 H   0  0  0  0  0  0  0  0  0  0  0  0
  2  1  1  1
  2  3  1  0
  3  4  1  0
  5 15  1  0
  5  4  1  0
  6  7  1  1
  6  5  1  0
  7  8  1  0
  9  8  1  0
 10  9  1  1
 10 11  1  0
 12 13  1  0
 12 10  1  0
 12 11  1  0
 14 13  1  0
 14 15  1  0
 15  9  1  0
 15 16  1  1
 17 18  1  0
  6 17  1  0
 17  2  1  0
 19 18  1  0
 19 20  1  0
 20  2  1  1
 20 21  1  0
 21 22  1  0
M  END
>  <vina_score>  (4) 
-6.484

>  <pose_id>  (4) 
4

$$$$

     RDKit          3D

 22 26  0  0  1  0  0  0  0  0999 V2000
   16.5240   13.5140   13.0730 C   0  0  0  0  0  1  0  0  0  0  0  0
   17.3060   14.6340   13.8000 C   0  0  2  0  0  0  0  0  0  0  0  0
   18.1190   15.4260   12.7730 C   0  0  0  0  0  2  0  0  0  0  0  0
   19.3600   14.6410   12.2930 C   0  0  0  0  0  2  0  0  0  0  0  0
   20.2930   14.1830   13.4530 C   0  0  0  0  0  3  0  0  0  0  0  0
   19.4970   13.3890   14.5310 C   0  0  0  0  0  3  0  0  0  0  0  0
   19.2300   11.9510   14.0990 C   0  0  0  0  0  2  0  0  0  0  0  0
   20.5230   11.2300   13.7690 C   0  0  0  0  0  2  0  0  0  0  0  0
   21.3590   11.9310   12.6730 C   0  0  0  0  0  3  0  0  0  0  0  0
   22.6140   11.1000   12.5180 C   0  0  0  0  0  3  0  0  0  0  0  0
   23.6790   11.6350   11.7380 O   0  0  0  0  0  0  0  0  0  0  0  0
   23.8990   11.5480   13.1610 C   0  0  0  0  0  3  0  0  0  0  0  0
   24.0260   12.8810   13.8230 C   0  0  0  0  0  2  0  0  0  0  0  0
   22.6750   13.5340   14.1390 C   0  0  0  0  0  2  0  0  0  0  0  0
   21.6210   13.4440   12.9910 C   0  0  2  0  0  0  0  0  0  0  0  0
   22.1830   14.1910   11.7500 C   0  0  0  0  0  1  0  0  0  0  0  0
   18.2600   14.2020   14.9330 C   0  0  0  0  0  3  0  0  0  0  0  0
   17.3270   13.6900   16.0260 C   0  0  0  0  0  2  0  0  0  0  0  0
   16.0960   14.6100   15.9090 C   0  0  0  0  0  2  0  0  0  0  0  0
   16.3230   15.4730   14.6510 C   0  0  0  0  0  3  0  0  0  0  0  0
   15.0960   15.7670   14.0120 O   0  0  0  0  0  0  0  0  0  0  0  0
   14.4000   15.7400   14.6900 H   0  0  0  0  0  0  0  0  0  0  0  0
  2  1  1  6
 20  2  1  0
  2 17  1  0
  3  2  1  0
  4  3  1  0
  5  4  1  0
  5  6  1  0
  6  7  1  0
  6 17  1  1
  8  7  1  0
  9 15  1  0
  9  8  1  0
 10 11  1  0
 10  9  1  1
 10 12  1  0
 12 11  1  0
 12 13  1  0
 13 14  1  0
 15 16  1  6
  5 15  1  0
 15 14  1  0
 17 18  1  0
 19 18  1  1
 20 21  1  0
 20 19  1  0
 21 22  1  0
M  END
>  <vina_score>  (5) 
-6.4560000000000004

>  <pose_id>  (5) 
5

$$$$
