
     RDKit          3D

 28 30  0  0  1  0  0  0  0  0999 V2000
   20.5620   11.6310   15.6890 N   0  0  0  0  0  0  0  0  0  0  0  0
   21.1350   10.4760   15.1760 C   0  0  0  0  0  0  0  0  0  0  0  0
   20.4350    9.5390   14.7940 O   0  0  0  0  0  0  0  0  0  0  0  0
   21.1440   12.2840   16.1950 H   0  0  0  0  0  0  0  0  0  0  0  0
   19.1250   11.7600   15.8400 C   0  0  0  0  0  2  0  0  0  0  0  0
   18.7460   12.1500   17.2680 C   0  0  0  0  0  2  0  0  0  0  0  0
   17.3940   11.5890   17.7100 C   0  0  0  0  0  2  0  0  0  0  0  0
   16.2220   12.5000   17.3790 C   0  0  0  0  0  1  0  0  0  0  0  0
   22.7170   10.4590   15.1860 C   0  0  1  0  0  0  0  0  0  0  0  0
   23.1310   11.7660   14.4340 C   0  0  0  0  0  2  0  0  0  0  0  0
   23.2210   10.4650   16.5890 N   0  0  0  0  0  0  0  0  0  0  0  0
   24.2270   12.5780   15.1190 C   0  0  0  0  0  2  0  0  0  0  0  0
   24.6640   10.7190   16.7370 C   0  0  0  0  0  2  0  0  0  0  0  0
   25.2740   11.6470   15.6890 C   0  0  0  0  0  2  0  0  0  0  0  0
   23.2210    9.2110   14.4260 C   0  0  0  0  0  1  0  0  0  0  0  0
   22.8180    9.2950   17.3960 C   0  0  0  0  0  2  0  0  0  0  0  0
   21.7370    9.6260   18.4040 C   0  0  0  0  0  0  0  0  0  0  0  0
   21.8900   10.7190   19.2660 C   0  0  0  0  0  3  0  0  0  0  0  0
   20.5700    8.8580   18.4920 C   0  0  0  0  0  3  0  0  0  0  0  0
   20.8990   11.0350   20.1990 C   0  0  0  0  0  3  0  0  0  0  0  0
   19.5790    9.1780   19.4270 C   0  0  0  0  0  3  0  0  0  0  0  0
   19.7260   10.2700   20.2960 C   0  0  0  0  0  0  0  0  0  0  0  0
   18.6820   10.6030   21.2810 C   0  0  0  0  0  0  0  0  0  0  0  0
   17.3450   10.2260   21.0730 C   0  0  0  0  0  3  0  0  0  0  0  0
   18.9930   11.3050   22.4580 C   0  0  0  0  0  3  0  0  0  0  0  0
   16.3530   10.5420   22.0060 C   0  0  0  0  0  3  0  0  0  0  0  0
   18.0030   11.6200   23.3920 C   0  0  0  0  0  3  0  0  0  0  0  0
   16.6840   11.2390   23.1660 C   0  0  0  0  0  3  0  0  0  0  0  0
  1  5  1  0
  1  4  1  0
  2  9  1  0
  2  1  1  0
  3  2  2  0
  5  6  1  0
  6  7  1  0
  8  7  1  0
  9 15  1  6
  9 11  1  0
 10 12  1  0
 10  9  1  0
 11 13  1  0
 11 16  1  0
 12 14  1  0
 14 13  1  0
 16 17  1  0
 17 19  2  0
 17 18  1  0
 18 20  2  0
 19 21  1  0
 20 22  1  0
 21 22  2  0
 22 23  1  0
 23 25  1  0
 24 23  2  0
 24 26  1  0
 25 27  2  0
 26 28  2  0
 28 27  1  0
M  RAD  8   5   3   6   3   7   3   8   2  10   3  12   3  13   3  14   3
M  RAD  8  15   2  16   3  18   2  19   2  20   2  21   2  24   2  25   2
M  RAD  3  26   2  27   2  28   2
M  END
>  <vina_score>  (1) 
-7.0339999999999998

>  <pose_id>  (1) 
1

$$$$

     RDKit          3D

 28 30  0  0  1  0  0  0  0  0999 V2000
   20.7660   11.7750   15.3300 N   0  0  0  0  0  0  0  0  0  0  0  0
   21.3640   10.6480   14.7820 C   0  0  0  0  0  0  0  0  0  0  0  0
   20.6890    9.7880   14.2180 O   0  0  0  0  0  0  0  0  0  0  0  0
   21.2970   12.3480   15.9710 H   0  0  0  0  0  0  0  0  0  0  0  0
   19.3280   11.9580   15.3040 C   0  0  0  0  0  2  0  0  0  0  0  0
   18.7540   12.0770   16.7150 C   0  0  0  0  0  2  0  0  0  0  0  0
   17.5710   13.0400   16.8080 C   0  0  0  0  0  2  0  0  0  0  0  0
   16.4450   12.7130   15.8380 C   0  0  0  0  0  1  0  0  0  0  0  0
   22.9270   10.5550   14.9970 C   0  0  1  0  0  0  0  0  0  0  0  0
   23.4920   11.8760   14.3780 C   0  0  0  0  0  2  0  0  0  0  0  0
   23.2420   10.4680   16.4510 N   0  0  0  0  0  0  0  0  0  0  0  0
   24.5200   12.5990   15.2430 C   0  0  0  0  0  2  0  0  0  0  0  0
   24.6610   10.6440   16.8000 C   0  0  0  0  0  2  0  0  0  0  0  0
   25.4420   11.5920   15.8930 C   0  0  0  0  0  2  0  0  0  0  0  0
   23.4760    9.3220   14.2420 C   0  0  0  0  0  1  0  0  0  0  0  0
   22.6870    9.2800   17.1340 C   0  0  0  0  0  2  0  0  0  0  0  0
   21.6620    9.6410   18.1900 C   0  0  0  0  0  0  0  0  0  0  0  0
   20.3890    9.0580   18.1630 C   0  0  0  0  0  3  0  0  0  0  0  0
   21.9640   10.5500   19.2110 C   0  0  0  0  0  3  0  0  0  0  0  0
   19.4360    9.3810   19.1320 C   0  0  0  0  0  3  0  0  0  0  0  0
   21.0080   10.8710   20.1810 C   0  0  0  0  0  3  0  0  0  0  0  0
   19.7280   10.2940   20.1580 C   0  0  0  0  0  0  0  0  0  0  0  0
   18.7230   10.6360   21.1790 C   0  0  0  0  0  0  0  0  0  0  0  0
   19.0770   11.3670   22.3260 C   0  0  0  0  0  3  0  0  0  0  0  0
   17.3820   10.2430   21.0360 C   0  0  0  0  0  3  0  0  0  0  0  0
   18.1250   11.6910   23.2960 C   0  0  0  0  0  3  0  0  0  0  0  0
   16.4280   10.5670   22.0050 C   0  0  0  0  0  3  0  0  0  0  0  0
   16.8000   11.2910   23.1340 C   0  0  0  0  0  3  0  0  0  0  0  0
  1  4  1  0
  2  9  1  0
  2  1  1  0
  3  2  2  0
  5  1  1  0
  5  6  1  0
  6  7  1  0
  8  7  1  0
  9 15  1  6
  9 11  1  0
 10  9  1  0
 10 12  1  0
 11 13  1  0
 11 16  1  0
 12 14  1  0
 14 13  1  0
 16 17  1  0
 17 19  2  0
 18 17  1  0
 18 20  2  0
 19 21  1  0
 20 22  1  0
 22 21  2  0
 22 23  1  0
 23 24  2  0
 24 26  1  0
 25 23  1  0
 25 27  2  0
 27 28  1  0
 28 26  2  0
M  RAD  8   5   3   6   3   7   3   8   2  10   3  12   3  13   3  14   3
M  RAD  8  15   2  16   3  18   2  19   2  20   2  21   2  24   2  25   2
M  RAD  3  26   2  27   2  28   2
M  END
>  <vina_score>  (2) 
-6.5869999999999997

>  <pose_id>  (2) 
2

$$$$

     RDKit          3D

 28 30  0  0  1  0  0  0  0  0999 V2000
   21.1330    9.9860   19.8220 N   0  0  0  0  0  0  0  0  0  0  0  0
   20.2920   10.9960   20.2680 C   0  0  0  0  0  0  0  0  0  0  0  0
   20.5880   12.1790   20.1110 O   0  0  0  0  0  0  0  0  0  0  0  0
   20.9840    9.0430   20.1530 H   0  0  0  0  0  0  0  0  0  0  0  0
   22.4100   10.2830   19.2020 C   0  0  0  0  0  2  0  0  0  0  0  0
   22.3330   10.1690   17.6800 C   0  0  0  0  0  2  0  0  0  0  0  0
   21.3100    9.1390   17.2020 C   0  0  0  0  0  2  0  0  0  0  0  0
   20.9070    9.3150   15.7460 C   0  0  0  0  0  1  0  0  0  0  0  0
   18.9950   10.4950   21.0220 C   0  0  1  0  0  0  0  0  0  0  0  0
   19.0600   11.1850   22.4230 C   0  0  0  0  0  2  0  0  0  0  0  0
   17.7740   10.9120   20.2750 N   0  0  0  0  0  0  0  0  0  0  0  0
   17.7520   11.8210   22.8850 C   0  0  0  0  0  2  0  0  0  0  0  0
   16.5040   10.7430   21.0010 C   0  0  0  0  0  2  0  0  0  0  0  0
   16.5890   10.9270   22.5150 C   0  0  0  0  0  2  0  0  0  0  0  0
   19.0490    8.9570   21.1690 C   0  0  0  0  0  1  0  0  0  0  0  0
   17.6650   10.3590   18.9100 C   0  0  0  0  0  2  0  0  0  0  0  0
   17.5360   11.4360   17.8520 C   0  0  0  0  0  0  0  0  0  0  0  0
   16.3130   12.0920   17.6620 C   0  0  0  0  0  3  0  0  0  0  0  0
   18.6260   11.8000   17.0530 C   0  0  0  0  0  3  0  0  0  0  0  0
   16.1820   13.0880   16.6900 C   0  0  0  0  0  3  0  0  0  0  0  0
   18.4920   12.7980   16.0820 C   0  0  0  0  0  3  0  0  0  0  0  0
   17.2690   13.4590   15.8830 C   0  0  0  0  0  0  0  0  0  0  0  0
   17.1300   14.5070   14.8580 C   0  0  0  0  0  0  0  0  0  0  0  0
   18.0290   14.5880   13.7800 C   0  0  0  0  0  3  0  0  0  0  0  0
   16.0970   15.4560   14.9270 C   0  0  0  0  0  3  0  0  0  0  0  0
   17.9000   15.5840   12.8080 C   0  0  0  0  0  3  0  0  0  0  0  0
   15.9660   16.4510   13.9540 C   0  0  0  0  0  3  0  0  0  0  0  0
   16.8670   16.5140   12.8950 C   0  0  0  0  0  3  0  0  0  0  0  0
  1  4  1  0
  1  2  1  0
  2  9  1  0
  3  2  2  0
  5  1  1  0
  6  5  1  0
  7  6  1  0
  8  7  1  0
  9 15  1  1
  9 10  1  0
 10 12  1  0
 11 13  1  0
 11  9  1  0
 13 14  1  0
 14 12  1  0
 16 11  1  0
 17 16  1  0
 18 17  1  0
 19 17  2  0
 20 18  2  0
 21 19  1  0
 22 21  2  0
 22 20  1  0
 23 25  1  0
 23 22  1  0
 24 23  2  0
 26 28  2  0
 26 24  1  0
 27 25  2  0
 28 27  1  0
M  RAD  8   5   3   6   3   7   3   8   2  10   3  12   3  13   3  14   3
M  RAD  8  15   2  16   3  18   2  19   2  20   2  21   2  24   2  25   2
M  RAD  3  26   2  27   2  28   2
M  END
>  <vina_score>  (3) 
-6.4379999999999997

>  <pose_id>  (3) 
3

$$$$

     RDKit          3D

 28 30  0  0  1  0  0  0  0  0999 V2000
   18.8830    8.7510   17.8130 N   0  0  0  0  0  0  0  0  0  0  0  0
   17.6730    8.7500   18.4930 C   0  0  0  0  0  0  0  0  0  0  0  0
   16.6550    8.2980   17.9710 O   0  0  0  0  0  0  0  0  0  0  0  0
   19.6410    9.3180   18.1650 H   0  0  0  0  0  0  0  0  0  0  0  0
   18.9850    8.2680   16.4490 C   0  0  0  0  0  2  0  0  0  0  0  0
   19.0530    9.4230   15.4510 C   0  0  0  0  0  2  0  0  0  0  0  0
   17.7550    9.6220   14.6680 C   0  0  0  0  0  2  0  0  0  0  0  0
   17.9710   10.1780   13.2680 C   0  0  0  0  0  1  0  0  0  0  0  0
   17.7170    9.4160   19.9270 C   0  0  1  0  0  0  0  0  0  0  0  0
   19.0190    8.8520   20.5850 C   0  0  0  0  0  2  0  0  0  0  0  0
   17.7780   10.8990   19.8040 N   0  0  0  0  0  0  0  0  0  0  0  0
   19.8900    9.8970   21.2770 C   0  0  0  0  0  2  0  0  0  0  0  0
   18.0900   11.6230   21.0470 C   0  0  0  0  0  2  0  0  0  0  0  0
   19.0150   10.8860   22.0150 C   0  0  0  0  0  2  0  0  0  0  0  0
   16.4700    8.9830   20.7320 C   0  0  0  0  0  1  0  0  0  0  0  0
   16.6140   11.5120   19.1300 C   0  0  0  0  0  2  0  0  0  0  0  0
   16.9720   12.1330   17.7950 C   0  0  0  0  0  0  0  0  0  0  0  0
   18.3130   12.3640   17.4650 C   0  0  0  0  0  3  0  0  0  0  0  0
   15.9810   12.4800   16.8700 C   0  0  0  0  0  3  0  0  0  0  0  0
   18.6560   12.9350   16.2360 C   0  0  0  0  0  3  0  0  0  0  0  0
   16.3280   13.0510   15.6400 C   0  0  0  0  0  3  0  0  0  0  0  0
   17.6700   13.2880   15.3020 C   0  0  0  0  0  0  0  0  0  0  0  0
   18.0320   13.8920   14.0080 C   0  0  0  0  0  0  0  0  0  0  0  0
   17.0560   14.4830   13.1870 C   0  0  0  0  0  3  0  0  0  0  0  0
   19.3620   13.8960   13.5560 C   0  0  0  0  0  3  0  0  0  0  0  0
   17.3960   15.0540   11.9580 C   0  0  0  0  0  3  0  0  0  0  0  0
   19.7050   14.4680   12.3280 C   0  0  0  0  0  3  0  0  0  0  0  0
   18.7220   15.0470   11.5300 C   0  0  0  0  0  3  0  0  0  0  0  0
  1  4  1  0
  1  2  1  0
  2  9  1  0
  3  2  2  0
  5  1  1  0
  6  5  1  0
  7  6  1  0
  8  7  1  0
  9 10  1  0
  9 15  1  1
 10 12  1  0
 11  9  1  0
 11 13  1  0
 12 14  1  0
 13 14  1  0
 16 11  1  0
 17 16  1  0
 18 17  1  0
 19 17  2  0
 20 18  2  0
 21 19  1  0
 22 21  2  0
 22 20  1  0
 23 22  1  0
 24 23  2  0
 25 23  1  0
 26 24  1  0
 27 25  2  0
 28 26  2  0
 28 27  1  0
M  RAD  8   5   3   6   3   7   3   8   2  10   3  12   3  13   3  14   3
M  RAD  8  15   2  16   3  18   2  19   2  20   2  21   2  24   2  25   2
M  RAD  3  26   2  27   2  28   2
M  END
>  <vina_score>  (4) 
-6.3929999999999998

>  <pose_id>  (4) 
4

$$$$

     RDKit          3D

 28 30  0  0  1  0  0  0  0  0999 V2000
   22.1540   10.8990   17.0740 N   0  0  0  0  0  0  0  0  0  0  0  0
   21.2860    9.8240   17.2010 C   0  0  0  0  0  0  0  0  0  0  0  0
   21.4200    8.8190   16.5040 O   0  0  0  0  0  0  0  0  0  0  0  0
   21.9000   11.7850   17.4870 H   0  0  0  0  0  0  0  0  0  0  0  0
   23.2170   10.9020   16.0870 C   0  0  0  0  0  2  0  0  0  0  0  0
   22.7910   11.6240   14.8100 C   0  0  0  0  0  2  0  0  0  0  0  0
   23.7270   12.7680   14.4200 C   0  0  0  0  0  2  0  0  0  0  0  0
   24.4380   12.5450   13.0940 C   0  0  0  0  0  1  0  0  0  0  0  0
   20.1180   10.0330   18.2470 C   0  0  1  0  0  0  0  0  0  0  0  0
   20.8410   10.4590   19.5670 C   0  0  0  0  0  2  0  0  0  0  0  0
   19.1920   11.1000   17.7750 N   0  0  0  0  0  0  0  0  0  0  0  0
   20.2160   11.6540   20.2810 C   0  0  0  0  0  2  0  0  0  0  0  0
   18.2190   11.5770   18.7730 C   0  0  0  0  0  2  0  0  0  0  0  0
   18.7080   11.5570   20.2200 C   0  0  0  0  0  2  0  0  0  0  0  0
   19.3630    8.6990   18.4460 C   0  0  0  0  0  1  0  0  0  0  0  0
   18.5140   10.8100   16.4940 C   0  0  0  0  0  2  0  0  0  0  0  0
   18.9610   11.7300   15.3760 C   0  0  0  0  0  0  0  0  0  0  0  0
   19.1490   13.0960   15.6220 C   0  0  0  0  0  3  0  0  0  0  0  0
   19.2000   11.2390   14.0870 C   0  0  0  0  0  3  0  0  0  0  0  0
   19.5610   13.9540   14.6000 C   0  0  0  0  0  3  0  0  0  0  0  0
   19.6140   12.1010   13.0650 C   0  0  0  0  0  3  0  0  0  0  0  0
   19.8020   13.4720   13.3030 C   0  0  0  0  0  0  0  0  0  0  0  0
   20.2350   14.3780   12.2250 C   0  0  0  0  0  0  0  0  0  0  0  0
   21.5990   14.6010   11.9730 C   0  0  0  0  0  3  0  0  0  0  0  0
   19.2980   15.0430   11.4160 C   0  0  0  0  0  3  0  0  0  0  0  0
   22.0120   15.4610   10.9510 C   0  0  0  0  0  3  0  0  0  0  0  0
   19.7090   15.9020   10.3940 C   0  0  0  0  0  3  0  0  0  0  0  0
   21.0660   16.1110   10.1620 C   0  0  0  0  0  3  0  0  0  0  0  0
  1  2  1  0
  1  4  1  0
  2  9  1  0
  3  2  2  0
  5  1  1  0
  6  5  1  0
  7  6  1  0
  8  7  1  0
  9 15  1  1
  9 10  1  0
 10 12  1  0
 11  9  1  0
 11 13  1  0
 13 14  1  0
 14 12  1  0
 16 11  1  0
 17 18  1  0
 17 16  1  0
 19 17  2  0
 20 18  2  0
 21 22  2  0
 21 19  1  0
 22 20  1  0
 23 22  1  0
 24 23  2  0
 25 23  1  0
 26 24  1  0
 27 25  2  0
 28 27  1  0
 28 26  2  0
M  RAD  8   5   3   6   3   7   3   8   2  10   3  12   3  13   3  14   3
M  RAD  8  15   2  16   3  18   2  19   2  20   2  21   2  24   2  25   2
M  RAD  3  26   2  27   2  28   2
M  END
>  <vina_score>  (5) 
-6.194

>  <pose_id>  (5) 
5

$$$$
