
     RDKit          3D

 31 33  0  0  0  0  0  0  0  0999 V2000
   18.0970    9.4700   16.9040 C   0  0  0  0  0  0  0  0  0  0  0  0
   18.6490   10.5000   16.1860 C   0  0  0  0  0  3  0  0  0  0  0  0
   18.1760   10.3180   14.8580 C   0  0  0  0  0  0  0  0  0  0  0  0
   17.4130    9.2120   14.7870 N   0  0  0  0  0  0  0  0  0  0  0  0
   17.3540    8.6980   16.0670 O   0  0  0  0  0  0  0  0  0  0  0  0
   18.1620    9.0460   18.3200 C   0  0  0  0  0  2  0  0  0  0  0  0
   17.0180    9.6040   18.9630 O   0  0  0  0  0  0  0  0  0  0  0  0
   17.2190   10.2510   20.1570 C   0  0  0  0  0  0  0  0  0  0  0  0
   16.1710   10.1510   21.1000 C   0  0  0  0  0  0  0  0  0  0  0  0
   16.2990   10.7820   22.3420 C   0  0  0  0  0  3  0  0  0  0  0  0
   17.4530   11.5110   22.6360 C   0  0  0  0  0  0  0  0  0  0  0  0
   18.3640   10.9990   20.4610 C   0  0  0  0  0  3  0  0  0  0  0  0
   18.4800   11.6270   21.7020 C   0  0  0  0  0  3  0  0  0  0  0  0
   17.6070   12.2840   24.1670 Cl  0  0  0  0  0  0  0  0  0  0  0  0
   15.0750    9.4150   20.7110 O   0  0  0  0  0  0  0  0  0  0  0  0
   14.4760    8.5570   21.6740 C   0  0  0  0  0  1  0  0  0  0  0  0
   18.5290   11.1570   13.6990 C   0  0  0  0  0  0  0  0  0  0  0  0
   18.7640   10.6160   12.6160 O   0  0  0  0  0  0  0  0  0  0  0  0
   18.5850   12.5570   13.8390 N   0  0  0  0  0  0  0  0  0  0  0  0
   19.8360   13.3060   13.7410 C   0  0  0  0  0  1  0  0  0  0  0  0
   17.3080   13.3060   13.8390 C   0  0  0  0  0  3  0  0  0  0  0  0
   17.3010   14.3930   12.7610 C   0  0  0  0  0  2  0  0  0  0  0  0
   16.8980   13.8310   15.2300 C   0  0  0  0  0  2  0  0  0  0  0  0
   15.9600   15.1550   12.7230 C   0  0  2  0  0  0  0  0  0  0  0  0
   16.2230   15.2220   15.2250 C   0  0  2  0  0  0  0  0  0  0  0  0
   15.3770   15.4020   14.0480 N   0  0  0  0  0  0  0  0  0  0  0  0
   14.9070   14.3370   11.9420 C   0  0  0  0  0  1  0  0  0  0  0  0
   16.1600   16.4940   11.9840 C   0  0  0  0  0  1  0  0  0  0  0  0
   17.2520   16.3590   15.3730 C   0  0  0  0  0  1  0  0  0  0  0  0
   15.2860   15.3060   16.4500 C   0  0  0  0  0  1  0  0  0  0  0  0
   14.8720   16.2880   14.0770 H   0  0  0  0  0  0  0  0  0  0  0  0
  1  6  1  0
  2  1  2  0
  3  2  1  0
  4  3  2  0
  4  5  1  0
  5  1  1  0
  6  7  1  0
  7  8  1  0
  8 12  1  0
  8  9  2  0
  9 10  1  0
 10 11  2  0
 11 14  1  0
 12 13  2  0
 13 11  1  0
 15  9  1  0
 15 16  1  0
 17 19  1  0
 17  3  1  0
 18 17  2  0
 19 21  1  0
 20 19  1  0
 21 23  1  0
 22 21  1  0
 24 22  1  0
 24 26  1  0
 25 23  1  0
 25 29  1  1
 25 30  1  0
 26 31  1  0
 26 25  1  0
 24 27  1  6
 28 24  1  0
M  RAD  8   2   2   6   3  10   2  12   2  13   2  16   2  20   2  21   2
M  RAD  6  22   3  23   3  27   2  28   2  29   2  30   2
M  END
>  <vina_score>  (1) 
-7.8570000000000002

>  <pose_id>  (1) 
1

$$$$

     RDKit          3D

 31 33  0  0  0  0  0  0  0  0999 V2000
   17.7200    8.9080   16.9680 C   0  0  0  0  0  0  0  0  0  0  0  0
   18.1200   10.0940   16.4070 C   0  0  0  0  0  3  0  0  0  0  0  0
   17.8540    9.9520   15.0180 C   0  0  0  0  0  0  0  0  0  0  0  0
   17.3570    8.7270   14.7660 N   0  0  0  0  0  0  0  0  0  0  0  0
   17.2590    8.0880   15.9860 O   0  0  0  0  0  0  0  0  0  0  0  0
   17.7080    8.3680   18.3460 C   0  0  0  0  0  2  0  0  0  0  0  0
   18.7130    9.0770   19.0680 O   0  0  0  0  0  0  0  0  0  0  0  0
   18.3180    9.7670   20.1870 C   0  0  0  0  0  0  0  0  0  0  0  0
   19.3520   10.3580   20.9480 C   0  0  0  0  0  0  0  0  0  0  0  0
   19.0310   11.0800   22.1020 C   0  0  0  0  0  3  0  0  0  0  0  0
   17.6980   11.2030   22.4980 C   0  0  0  0  0  0  0  0  0  0  0  0
   16.9860    9.8860   20.6060 C   0  0  0  0  0  3  0  0  0  0  0  0
   16.6780   10.6060   21.7610 C   0  0  0  0  0  3  0  0  0  0  0  0
   17.3100   12.0940   23.9190 Cl  0  0  0  0  0  0  0  0  0  0  0  0
   20.6310   10.1740   20.4750 O   0  0  0  0  0  0  0  0  0  0  0  0
   21.4900   11.3080   20.4260 C   0  0  0  0  0  1  0  0  0  0  0  0
   18.1540   10.9540   13.9800 C   0  0  0  0  0  0  0  0  0  0  0  0
   18.3100   10.5840   12.8150 O   0  0  0  0  0  0  0  0  0  0  0  0
   18.2490   12.3150   14.3280 N   0  0  0  0  0  0  0  0  0  0  0  0
   19.5290   12.9700   14.5920 C   0  0  0  0  0  1  0  0  0  0  0  0
   17.0390   13.1560   14.1810 C   0  0  0  0  0  3  0  0  0  0  0  0
   17.1810   14.1340   13.0120 C   0  0  0  0  0  2  0  0  0  0  0  0
   16.5960   13.8380   15.4910 C   0  0  0  0  0  2  0  0  0  0  0  0
   15.9100   14.9890   12.8220 C   0  0  2  0  0  0  0  0  0  0  0  0
   16.0370   15.2700   15.3200 C   0  0  2  0  0  0  0  0  0  0  0  0
   15.2750   15.4010   14.0800 N   0  0  0  0  0  0  0  0  0  0  0  0
   14.8400   14.1830   12.0520 C   0  0  0  0  0  1  0  0  0  0  0  0
   16.2600   16.2330   11.9810 C   0  0  0  0  0  1  0  0  0  0  0  0
   17.1450   16.3340   15.4300 C   0  0  0  0  0  1  0  0  0  0  0  0
   15.0430   15.5390   16.4700 C   0  0  0  0  0  1  0  0  0  0  0  0
   14.8440   16.3220   13.9980 H   0  0  0  0  0  0  0  0  0  0  0  0
  1  6  1  0
  2  1  2  0
  3  2  1  0
  4  3  2  0
  4  5  1  0
  5  1  1  0
  6  7  1  0
  7  8  1  0
  8 12  1  0
  8  9  2  0
  9 10  1  0
 10 11  2  0
 11 14  1  0
 12 13  2  0
 13 11  1  0
 15  9  1  0
 16 15  1  0
 17 19  1  0
 17  3  1  0
 18 17  2  0
 19 20  1  0
 21 19  1  0
 21 23  1  0
 22 21  1  0
 24 22  1  0
 24 26  1  0
 25 29  1  6
 25 23  1  0
 25 30  1  0
 26 25  1  0
 24 27  1  6
 28 24  1  0
 31 26  1  0
M  RAD  8   2   2   6   3  10   2  12   2  13   2  16   2  20   2  21   2
M  RAD  6  22   3  23   3  27   2  28   2  29   2  30   2
M  END
>  <vina_score>  (2) 
-7.8140000000000001

>  <pose_id>  (2) 
2

$$$$

     RDKit          3D

 31 33  0  0  0  0  0  0  0  0999 V2000
   17.3340   11.9650   16.9960 C   0  0  0  0  0  0  0  0  0  0  0  0
   17.7700   11.4030   15.8230 C   0  0  0  0  0  3  0  0  0  0  0  0
   18.5770   12.4030   15.2140 C   0  0  0  0  0  0  0  0  0  0  0  0
   18.5840   13.5150   15.9730 N   0  0  0  0  0  0  0  0  0  0  0  0
   17.8240   13.2300   17.0890 O   0  0  0  0  0  0  0  0  0  0  0  0
   16.4720   11.5020   18.1060 C   0  0  0  0  0  2  0  0  0  0  0  0
   17.2890   10.6810   18.9390 O   0  0  0  0  0  0  0  0  0  0  0  0
   17.2930   10.9540   20.2840 C   0  0  0  0  0  0  0  0  0  0  0  0
   18.4460   11.6030   20.7810 C   0  0  0  0  0  0  0  0  0  0  0  0
   18.5270   11.9190   22.1410 C   0  0  0  0  0  3  0  0  0  0  0  0
   17.4770   11.5830   22.9970 C   0  0  0  0  0  0  0  0  0  0  0  0
   16.2540   10.6100   21.1590 C   0  0  0  0  0  3  0  0  0  0  0  0
   16.3470   10.9260   22.5150 C   0  0  0  0  0  3  0  0  0  0  0  0
   17.5810   11.9750   24.6700 Cl  0  0  0  0  0  0  0  0  0  0  0  0
   19.4260   11.8860   19.8570 O   0  0  0  0  0  0  0  0  0  0  0  0
   20.7620   11.5090   20.1690 C   0  0  0  0  0  1  0  0  0  0  0  0
   19.2420   12.2880   13.9040 C   0  0  0  0  0  0  0  0  0  0  0  0
   18.7140   12.8020   12.9170 O   0  0  0  0  0  0  0  0  0  0  0  0
   20.4680   11.6040   13.8000 N   0  0  0  0  0  0  0  0  0  0  0  0
   20.5460   10.1680   13.5410 C   0  0  0  0  0  1  0  0  0  0  0  0
   21.7070   12.4100   13.7050 C   0  0  0  0  0  3  0  0  0  0  0  0
   22.2060   12.4950   12.2610 C   0  0  0  0  0  2  0  0  0  0  0  0
   22.8030   11.9790   14.7020 C   0  0  0  0  0  2  0  0  0  0  0  0
   23.4750   13.3650   12.1430 C   0  0  2  0  0  0  0  0  0  0  0  0
   24.2460   12.0600   14.1520 C   0  0  2  0  0  0  0  0  0  0  0  0
   24.4150   13.2050   13.2590 N   0  0  0  0  0  0  0  0  0  0  0  0
   23.0900   14.8620   12.1250 C   0  0  0  0  0  1  0  0  0  0  0  0
   24.1860   13.0440   10.8120 C   0  0  0  0  0  1  0  0  0  0  0  0
   24.6800   10.7420   13.4850 C   0  0  0  0  0  1  0  0  0  0  0  0
   25.2010   12.2940   15.3430 C   0  0  0  0  0  1  0  0  0  0  0  0
   25.3820   13.3050   12.9520 H   0  0  0  0  0  0  0  0  0  0  0  0
  1  5  1  0
  1  6  1  0
  2  1  2  0
  3  2  1  0
  3  4  2  0
  4  5  1  0
  6  7  1  0
  7  8  1  0
  8  9  2  0
  8 12  1  0
  9 10  1  0
 10 11  2  0
 11 14  1  0
 12 13  2  0
 13 11  1  0
 15 16  1  0
 15  9  1  0
 17  3  1  0
 18 17  2  0
 19 17  1  0
 20 19  1  0
 21 19  1  0
 21 23  1  0
 22 21  1  0
 24 22  1  0
 24 26  1  0
 25 23  1  0
 25 30  1  1
 26 25  1  0
 24 27  1  6
 28 24  1  0
 29 25  1  0
 31 26  1  0
M  RAD  8   2   2   6   3  10   2  12   2  13   2  16   2  20   2  21   2
M  RAD  6  22   3  23   3  27   2  28   2  29   2  30   2
M  END
>  <vina_score>  (3) 
-7.6260000000000003

>  <pose_id>  (3) 
3

$$$$

     RDKit          3D

 31 33  0  0  0  0  0  0  0  0999 V2000
   17.7420   11.8250   16.9370 C   0  0  0  0  0  0  0  0  0  0  0  0
   18.2090   11.4640   15.6980 C   0  0  0  0  0  3  0  0  0  0  0  0
   18.8340   12.6340   15.1860 C   0  0  0  0  0  0  0  0  0  0  0  0
   18.7080   13.6460   16.0640 N   0  0  0  0  0  0  0  0  0  0  0  0
   18.0430   13.1320   17.1590 O   0  0  0  0  0  0  0  0  0  0  0  0
   17.0020   11.1210   18.0080 C   0  0  0  0  0  2  0  0  0  0  0  0
   17.9780   10.6780   18.9510 O   0  0  0  0  0  0  0  0  0  0  0  0
   17.7420   10.9490   20.2760 C   0  0  0  0  0  0  0  0  0  0  0  0
   18.7390   11.6970   20.9410 C   0  0  0  0  0  0  0  0  0  0  0  0
   18.5730   12.0160   22.2930 C   0  0  0  0  0  3  0  0  0  0  0  0
   17.4330   11.5870   22.9740 C   0  0  0  0  0  0  0  0  0  0  0  0
   16.6110   10.5120   20.9770 C   0  0  0  0  0  3  0  0  0  0  0  0
   16.4570   10.8330   22.3270 C   0  0  0  0  0  3  0  0  0  0  0  0
   17.2330   11.9840   24.6380 Cl  0  0  0  0  0  0  0  0  0  0  0  0
   19.8250   12.0670   20.1820 O   0  0  0  0  0  0  0  0  0  0  0  0
   21.0620   11.4070   20.4270 C   0  0  0  0  0  1  0  0  0  0  0  0
   19.4560   12.7610   13.8570 C   0  0  0  0  0  0  0  0  0  0  0  0
   18.8050   12.4500   12.8580 O   0  0  0  0  0  0  0  0  0  0  0  0
   20.7740   13.2430   13.7440 N   0  0  0  0  0  0  0  0  0  0  0  0
   21.1100   14.6550   13.9130 C   0  0  0  0  0  1  0  0  0  0  0  0
   21.8740   12.2530   13.6980 C   0  0  0  0  0  3  0  0  0  0  0  0
   22.9680   12.5890   14.7140 C   0  0  0  0  0  2  0  0  0  0  0  0
   22.4220   12.0020   12.2780 C   0  0  0  0  0  2  0  0  0  0  0  0
   24.1010   11.5430   14.7050 C   0  0  2  0  0  0  0  0  0  0  0  0
   23.9500   11.7800   12.2040 C   0  0  2  0  0  0  0  0  0  0  0  0
   24.4410   11.0430   13.3660 N   0  0  0  0  0  0  0  0  0  0  0  0
   23.6840   10.3020   15.5260 C   0  0  0  0  0  1  0  0  0  0  0  0
   25.3550   12.1480   15.3690 C   0  0  0  0  0  1  0  0  0  0  0  0
   24.7130   13.1020   11.9970 C   0  0  0  0  0  1  0  0  0  0  0  0
   24.2480   10.8950   10.9730 C   0  0  0  0  0  1  0  0  0  0  0  0
   25.4350   10.8300   13.2870 H   0  0  0  0  0  0  0  0  0  0  0  0
  1  5  1  0
  1  6  1  0
  2  1  2  0
  3  2  1  0
  3  4  2  0
  4  5  1  0
  6  7  1  0
  7  8  1  0
  8  9  2  0
  8 12  1  0
  9 10  1  0
 10 11  2  0
 11 14  1  0
 12 13  2  0
 13 11  1  0
 15 16  1  0
 15  9  1  0
 17  3  1  0
 18 17  2  0
 19 17  1  0
 19 20  1  0
 21 19  1  0
 21 22  1  0
 23 21  1  0
 24 22  1  0
 24 28  1  1
 24 27  1  0
 25 23  1  0
 25 26  1  0
 26 24  1  0
 25 29  1  6
 30 25  1  0
 31 26  1  0
M  RAD  8   2   2   6   3  10   2  12   2  13   2  16   2  20   2  21   2
M  RAD  6  22   3  23   3  27   2  28   2  29   2  30   2
M  END
>  <vina_score>  (4) 
-7.5519999999999996

>  <pose_id>  (4) 
4

$$$$

     RDKit          3D

 31 33  0  0  0  0  0  0  0  0999 V2000
   18.6890    9.7560   17.3540 C   0  0  0  0  0  0  0  0  0  0  0  0
   19.1180   10.7420   16.5010 C   0  0  0  0  0  3  0  0  0  0  0  0
   18.2210   10.6900   15.3990 C   0  0  0  0  0  0  0  0  0  0  0  0
   17.3310    9.6960   15.5750 N   0  0  0  0  0  0  0  0  0  0  0  0
   17.6160    9.1300   16.8010 O   0  0  0  0  0  0  0  0  0  0  0  0
   19.1480    9.2560   18.6690 C   0  0  0  0  0  2  0  0  0  0  0  0
   17.9870    9.1540   19.4910 O   0  0  0  0  0  0  0  0  0  0  0  0
   17.9620    9.9030   20.6420 C   0  0  0  0  0  0  0  0  0  0  0  0
   16.6930   10.0780   21.2400 C   0  0  0  0  0  0  0  0  0  0  0  0
   16.5830   10.8270   22.4160 C   0  0  0  0  0  3  0  0  0  0  0  0
   17.7220   11.4020   22.9830 C   0  0  0  0  0  0  0  0  0  0  0  0
   19.0930   10.5000   21.2140 C   0  0  0  0  0  3  0  0  0  0  0  0
   18.9710   11.2480   22.3860 C   0  0  0  0  0  3  0  0  0  0  0  0
   17.5810   12.3220   24.4320 Cl  0  0  0  0  0  0  0  0  0  0  0  0
   15.6350    9.4750   20.6000 O   0  0  0  0  0  0  0  0  0  0  0  0
   14.6360    8.8600   21.4040 C   0  0  0  0  0  1  0  0  0  0  0  0
   18.2950   11.5340   14.1930 C   0  0  0  0  0  0  0  0  0  0  0  0
   17.7390   11.1550   13.1610 O   0  0  0  0  0  0  0  0  0  0  0  0
   18.9870   12.7590   14.2380 N   0  0  0  0  0  0  0  0  0  0  0  0
   20.4420   12.8420   14.1250 C   0  0  0  0  0  1  0  0  0  0  0  0
   18.1970   14.0070   14.1480 C   0  0  0  0  0  3  0  0  0  0  0  0
   17.1190   14.0620   15.2330 C   0  0  0  0  0  2  0  0  0  0  0  0
   17.6480   14.2920   12.7340 C   0  0  0  0  0  2  0  0  0  0  0  0
   16.3130   15.3770   15.1760 C   0  0  2  0  0  0  0  0  0  0  0  0
   16.2360   14.9200   12.7020 C   0  0  2  0  0  0  0  0  0  0  0  0
   16.0380   15.8490   13.8130 N   0  0  0  0  0  0  0  0  0  0  0  0
   17.1030   16.5130   15.8650 C   0  0  0  0  0  1  0  0  0  0  0  0
   14.9880   15.1920   15.9410 C   0  0  0  0  0  1  0  0  0  0  0  0
   15.1320   13.8480   12.6450 C   0  0  0  0  0  1  0  0  0  0  0  0
   16.1120   15.7580   11.4100 C   0  0  0  0  0  1  0  0  0  0  0  0
   15.1360   16.3210   13.7540 H   0  0  0  0  0  0  0  0  0  0  0  0
  1  6  1  0
  2  1  2  0
  3  4  2  0
  3  2  1  0
  4  5  1  0
  5  1  1  0
  6  7  1  0
  7  8  1  0
  8 12  1  0
  8  9  2  0
  9 10  1  0
 10 11  2  0
 11 14  1  0
 12 13  2  0
 13 11  1  0
 15  9  1  0
 15 16  1  0
 17 19  1  0
 17  3  1  0
 18 17  2  0
 20 19  1  0
 21 19  1  0
 21 22  1  0
 23 21  1  0
 24 22  1  0
 24 27  1  1
 24 28  1  0
 25 23  1  0
 25 26  1  0
 26 24  1  0
 25 29  1  6
 30 25  1  0
 31 26  1  0
M  RAD  8   2   2   6   3  10   2  12   2  13   2  16   2  20   2  21   2
M  RAD  6  22   3  23   3  27   2  28   2  29   2  30   2
M  END
>  <vina_score>  (5) 
-7.3799999999999999

>  <pose_id>  (5) 
5

$$$$
