
     RDKit          3D

 21 22  0  0  0  0  0  0  0  0999 V2000
   20.6640   12.8580   12.9750 C   0  0  0  0  0  0  0  0  0  0  0  0
   21.9240   12.5730   12.4480 C   0  0  0  0  0  3  0  0  0  0  0  0
   22.5830   13.5050   11.6280 C   0  0  0  0  0  0  0  0  0  0  0  0
   21.9610   14.7320   11.3570 C   0  0  0  0  0  3  0  0  0  0  0  0
   20.6990   15.0230   11.8840 C   0  0  0  0  0  3  0  0  0  0  0  0
   20.0340   14.0960   12.6970 C   0  0  0  0  0  0  0  0  0  0  0  0
   19.9290   11.9700   13.7880 N   0  0  0  0  0  0  0  0  0  0  0  0
   19.2590   10.8260   13.4240 C   0  0  0  0  0  0  0  0  0  0  0  0
   19.1750   10.3550   12.2940 O   0  0  0  0  0  0  0  0  0  0  0  0
   18.5650   10.1640   14.5870 C   0  0  0  0  0  1  0  0  0  0  0  0
   19.9080   12.2720   14.7600 H   0  0  0  0  0  0  0  0  0  0  0  0
   18.7660   14.3570   13.2760 N   0  0  0  0  0  0  0  0  0  0  0  0
   17.6920   14.6910   12.3050 C   0  0  0  0  0  2  0  0  0  0  0  0
   18.8720   15.3240   14.3980 C   0  0  0  0  0  2  0  0  0  0  0  0
   17.2410   16.1550   12.4290 C   0  0  0  0  0  2  0  0  0  0  0  0
   17.4670   15.8040   14.7940 C   0  0  0  0  0  2  0  0  0  0  0  0
   16.7860   16.5080   13.7430 O   0  0  0  0  0  0  0  0  0  0  0  0
   23.9510   13.1870   11.0780 C   0  0  1  0  0  0  0  0  0  0  0  0
   24.1110   11.8710   10.7710 F   0  0  0  0  0  0  0  0  0  0  0  0
   24.2400   13.8690    9.9330 F   0  0  0  0  0  0  0  0  0  0  0  0
   24.9480   13.4970   11.9530 F   0  0  0  0  0  0  0  0  0  0  0  0
  1  7  1  0
  2  1  1  0
  3  2  2  0
  4  3  1  0
  4  5  2  0
  5  6  1  0
  6  1  2  0
  6 12  1  0
  7 11  1  0
  8  7  1  0
  8 10  1  0
  9  8  2  0
 12 14  1  0
 13 15  1  0
 13 12  1  0
 14 16  1  0
 15 17  1  0
 17 16  1  0
 18  3  1  0
 18 21  1  1
 19 18  1  0
 20 18  1  0
M  RAD  8   2   2   4   2   5   2  10   2  13   3  14   3  15   3  16   3
M  END
>  <vina_score>  (1) 
-6.0069999999999997

>  <pose_id>  (1) 
1

$$$$

     RDKit          3D

 21 22  0  0  0  0  0  0  0  0999 V2000
   18.5360   13.7350   13.4820 C   0  0  0  0  0  0  0  0  0  0  0  0
   17.3340   14.2040   12.9490 C   0  0  0  0  0  3  0  0  0  0  0  0
   17.3300   14.9990   11.7900 C   0  0  0  0  0  0  0  0  0  0  0  0
   18.5490   15.3050   11.1690 C   0  0  0  0  0  3  0  0  0  0  0  0
   19.7550   14.8350   11.6980 C   0  0  0  0  0  3  0  0  0  0  0  0
   19.7680   14.0470   12.8560 C   0  0  0  0  0  0  0  0  0  0  0  0
   18.6270   12.9500   14.6510 N   0  0  0  0  0  0  0  0  0  0  0  0
   18.2350   13.2660   15.9300 C   0  0  0  0  0  0  0  0  0  0  0  0
   17.7200   14.3150   16.3000 O   0  0  0  0  0  0  0  0  0  0  0  0
   18.5310   12.1640   16.9160 C   0  0  0  0  0  1  0  0  0  0  0  0
   19.0660   12.0500   14.4710 H   0  0  0  0  0  0  0  0  0  0  0  0
   20.9630   13.5260   13.4140 N   0  0  0  0  0  0  0  0  0  0  0  0
   22.0640   14.5120   13.5680 C   0  0  0  0  0  2  0  0  0  0  0  0
   21.3790   12.2750   12.7310 C   0  0  0  0  0  2  0  0  0  0  0  0
   23.2360   14.2160   12.6190 C   0  0  0  0  0  2  0  0  0  0  0  0
   22.8110   11.9140   13.1540 C   0  0  0  0  0  2  0  0  0  0  0  0
   23.7860   12.9000   12.7760 O   0  0  0  0  0  0  0  0  0  0  0  0
   16.0210   15.4870   11.2180 C   0  0  1  0  0  0  0  0  0  0  0  0
   16.1330   15.9370    9.9390 F   0  0  0  0  0  0  0  0  0  0  0  0
   15.0580   14.5220   11.1860 F   0  0  0  0  0  0  0  0  0  0  0  0
   15.4900   16.5140   11.9370 F   0  0  0  0  0  0  0  0  0  0  0  0
  1  7  1  0
  2  1  1  0
  3  2  2  0
  4  5  2  0
  4  3  1  0
  5  6  1  0
  6 12  1  0
  6  1  2  0
  7  8  1  0
  8  9  2  0
  8 10  1  0
 11  7  1  0
 12 13  1  0
 14 16  1  0
 14 12  1  0
 15 17  1  0
 15 13  1  0
 17 16  1  0
 18  3  1  0
 18 21  1  1
 19 18  1  0
 20 18  1  0
M  RAD  8   2   2   4   2   5   2  10   2  13   3  14   3  15   3  16   3
M  END
>  <vina_score>  (2) 
-5.8719999999999999

>  <pose_id>  (2) 
2

$$$$

     RDKit          3D

 21 22  0  0  0  0  0  0  0  0999 V2000
   22.3560   12.5220   14.2240 C   0  0  0  0  0  0  0  0  0  0  0  0
   21.9020   13.4450   13.2800 C   0  0  0  0  0  3  0  0  0  0  0  0
   22.7630   13.9210   12.2760 C   0  0  0  0  0  0  0  0  0  0  0  0
   24.0810   13.4450   12.2280 C   0  0  0  0  0  3  0  0  0  0  0  0
   24.5390   12.5190   13.1690 C   0  0  0  0  0  3  0  0  0  0  0  0
   23.6890   12.0460   14.1770 C   0  0  0  0  0  0  0  0  0  0  0  0
   21.5620   12.0130   15.2730 N   0  0  0  0  0  0  0  0  0  0  0  0
   20.5760   11.0570   15.2180 C   0  0  0  0  0  0  0  0  0  0  0  0
   20.1950   10.4550   14.2200 O   0  0  0  0  0  0  0  0  0  0  0  0
   19.9350   10.8060   16.5600 C   0  0  0  0  0  1  0  0  0  0  0  0
   21.7750   12.4590   16.1620 H   0  0  0  0  0  0  0  0  0  0  0  0
   24.1000   11.0860   15.1370 N   0  0  0  0  0  0  0  0  0  0  0  0
   25.1180   11.5690   16.1060 C   0  0  0  0  0  2  0  0  0  0  0  0
   24.4570    9.7960   14.4960 C   0  0  0  0  0  2  0  0  0  0  0  0
   26.4760   10.8780   15.9030 C   0  0  0  0  0  2  0  0  0  0  0  0
   25.1730    8.8980   15.5160 C   0  0  0  0  0  2  0  0  0  0  0  0
   26.4130    9.4470   15.9910 O   0  0  0  0  0  0  0  0  0  0  0  0
   22.2530   14.9070   11.2540 C   0  0  1  0  0  0  0  0  0  0  0  0
   22.8070   14.7350   10.0230 F   0  0  0  0  0  0  0  0  0  0  0  0
   20.9050   14.8340   11.0650 F   0  0  0  0  0  0  0  0  0  0  0  0
   22.5060   16.1980   11.6070 F   0  0  0  0  0  0  0  0  0  0  0  0
  1  7  1  0
  2  1  1  0
  3  2  2  0
  4  3  1  0
  4  5  2  0
  5  6  1  0
  6  1  2  0
  6 12  1  0
  7 11  1  0
  8  7  1  0
  8 10  1  0
  9  8  2  0
 12 13  1  0
 14 12  1  0
 14 16  1  0
 15 17  1  0
 15 13  1  0
 16 17  1  0
 18 21  1  1
 18  3  1  0
 19 18  1  0
 20 18  1  0
M  RAD  8   2   2   4   2   5   2  10   2  13   3  14   3  15   3  16   3
M  END
>  <vina_score>  (3) 
-5.8559999999999999

>  <pose_id>  (3) 
3

$$$$

     RDKit          3D

 21 22  0  0  0  0  0  0  0  0999 V2000
   19.4810   11.2340   18.6910 C   0  0  0  0  0  0  0  0  0  0  0  0
   19.3540   11.2710   20.0800 C   0  0  0  0  0  3  0  0  0  0  0  0
   18.0850   11.3260   20.6800 C   0  0  0  0  0  0  0  0  0  0  0  0
   16.9450   11.3310   19.8630 C   0  0  0  0  0  3  0  0  0  0  0  0
   17.0670   11.2920   18.4710 C   0  0  0  0  0  3  0  0  0  0  0  0
   18.3290   11.2440   17.8660 C   0  0  0  0  0  0  0  0  0  0  0  0
   20.7170   11.1990   18.0120 N   0  0  0  0  0  0  0  0  0  0  0  0
   21.5880   10.1450   17.8680 C   0  0  0  0  0  0  0  0  0  0  0  0
   21.4460    9.0110   18.3140 O   0  0  0  0  0  0  0  0  0  0  0  0
   22.8270   10.5180   17.0930 C   0  0  0  0  0  1  0  0  0  0  0  0
   20.9580   12.1030   17.6120 H   0  0  0  0  0  0  0  0  0  0  0  0
   18.5020   11.1760   16.4590 N   0  0  0  0  0  0  0  0  0  0  0  0
   17.9850   12.3500   15.7090 C   0  0  0  0  0  2  0  0  0  0  0  0
   18.0370    9.8740   15.9190 C   0  0  0  0  0  2  0  0  0  0  0  0
   16.7650   11.9870   14.8470 C   0  0  0  0  0  2  0  0  0  0  0  0
   17.9600    9.9550   14.3870 C   0  0  0  0  0  2  0  0  0  0  0  0
   17.0160   10.9280   13.9110 O   0  0  0  0  0  0  0  0  0  0  0  0
   17.9640   11.3510   22.1840 C   0  0  1  0  0  0  0  0  0  0  0  0
   17.7960   12.6050   22.6860 F   0  0  0  0  0  0  0  0  0  0  0  0
   16.9080   10.6240   22.6490 F   0  0  0  0  0  0  0  0  0  0  0  0
   19.0650   10.8390   22.8020 F   0  0  0  0  0  0  0  0  0  0  0  0
  1  2  1  0
  2  3  2  0
  3 18  1  0
  4  3  1  0
  5  4  2  0
  6  5  1  0
  6  1  2  0
  7  1  1  0
  8  7  1  0
  8  9  2  0
 10  8  1  0
 11  7  1  0
 12  6  1  0
 13 12  1  0
 14 12  1  0
 15 13  1  0
 16 14  1  0
 17 16  1  0
 17 15  1  0
 18 20  1  6
 18 19  1  0
 18 21  1  0
M  RAD  8   2   2   4   2   5   2  10   2  13   3  14   3  15   3  16   3
M  END
>  <vina_score>  (4) 
-5.609

>  <pose_id>  (4) 
4

$$$$

     RDKit          3D

 21 22  0  0  0  0  0  0  0  0999 V2000
   24.0680    9.8710   14.1950 C   0  0  0  0  0  0  0  0  0  0  0  0
   24.4850   10.4620   13.0020 C   0  0  0  0  0  3  0  0  0  0  0  0
   23.8920   11.6530   12.5500 C   0  0  0  0  0  0  0  0  0  0  0  0
   22.8840   12.2470   13.3220 C   0  0  0  0  0  3  0  0  0  0  0  0
   22.4640   11.6610   14.5190 C   0  0  0  0  0  3  0  0  0  0  0  0
   23.0460   10.4700   14.9730 C   0  0  0  0  0  0  0  0  0  0  0  0
   24.5970    8.6670   14.7070 N   0  0  0  0  0  0  0  0  0  0  0  0
   25.8310    8.4410   15.2680 C   0  0  0  0  0  0  0  0  0  0  0  0
   26.7230    9.2670   15.4330 O   0  0  0  0  0  0  0  0  0  0  0  0
   26.0320    7.0010   15.6670 C   0  0  0  0  0  1  0  0  0  0  0  0
   23.9460    7.8920   14.6040 H   0  0  0  0  0  0  0  0  0  0  0  0
   22.6730    9.8520   16.1940 N   0  0  0  0  0  0  0  0  0  0  0  0
   21.2120    9.6420   16.3670 C   0  0  0  0  0  2  0  0  0  0  0  0
   23.3190   10.5130   17.3550 C   0  0  0  0  0  2  0  0  0  0  0  0
   20.6340   10.5310   17.4800 C   0  0  0  0  0  2  0  0  0  0  0  0
   22.6650   10.0190   18.6540 C   0  0  0  0  0  2  0  0  0  0  0  0
   21.2690   10.3460   18.7530 O   0  0  0  0  0  0  0  0  0  0  0  0
   24.3640   12.2870   11.2640 C   0  0  1  0  0  0  0  0  0  0  0  0
   25.2240   13.3230   11.4640 F   0  0  0  0  0  0  0  0  0  0  0  0
   25.0220   11.4160   10.4470 F   0  0  0  0  0  0  0  0  0  0  0  0
   23.3360   12.7840   10.5220 F   0  0  0  0  0  0  0  0  0  0  0  0
  1  7  1  0
  1  6  2  0
  2  1  1  0
  3  2  2  0
  3  4  1  0
  4  5  2  0
  5  6  1  0
  6 12  1  0
  7  8  1  0
  8  9  2  0
  8 10  1  0
 11  7  1  0
 12 13  1  0
 12 14  1  0
 13 15  1  0
 14 16  1  0
 15 17  1  0
 16 17  1  0
 18 19  1  1
 18  3  1  0
 20 18  1  0
 21 18  1  0
M  RAD  8   2   2   4   2   5   2  10   2  13   3  14   3  15   3  16   3
M  END
>  <vina_score>  (5) 
-5.6029999999999998

>  <pose_id>  (5) 
5

$$$$
