
     RDKit          3D

 22 24  0  0  1  0  0  0  0  0999 V2000
   17.4620   14.6440   12.7260 C   0  0  0  0  0  0  0  0  0  0  0  0
   16.6160   13.7710   13.4140 C   0  0  0  0  0  0  0  0  0  0  0  0
   17.0690   13.0550   14.4530 F   0  0  0  0  0  0  0  0  0  0  0  0
   15.2810   13.6150   13.0430 C   0  0  0  0  0  3  0  0  0  0  0  0
   14.7750   14.3410   11.9690 C   0  0  0  0  0  3  0  0  0  0  0  0
   15.6100   15.2140   11.2700 C   0  0  0  0  0  3  0  0  0  0  0  0
   16.9520   15.3690   11.6430 C   0  0  0  0  0  0  0  0  0  0  0  0
   17.9200   16.4200   10.6720 Cl  0  0  0  0  0  0  0  0  0  0  0  0
   18.8580   14.8040   13.1870 C   0  0  0  0  0  0  0  0  0  0  0  0
   19.1050   15.4260   14.2120 O   0  0  0  0  0  0  0  0  0  0  0  0
   19.8230   14.2030   12.4080 N   0  0  0  0  0  0  0  0  0  0  0  0
   19.5440   13.5640   11.6740 H   0  0  0  0  0  0  0  0  0  0  0  0
   21.2260   14.1720   12.8140 C   0  0  0  0  0  3  0  0  0  0  0  0
   21.4570   12.9170   13.6660 C   0  0  0  0  0  2  0  0  0  0  0  0
   22.1310   14.3060   11.6000 C   0  0  0  0  0  0  0  0  0  0  0  0
   22.9150   12.7550   14.0390 C   0  0  0  0  0  2  0  0  0  0  0  0
   21.8230   15.2930   10.6380 C   0  0  0  0  0  3  0  0  0  0  0  0
   23.2940   13.5390   11.4170 C   0  0  0  0  0  0  0  0  0  0  0  0
   23.8760   12.3070   12.5710 S   0  0  0  0  0  0  0  0  0  0  0  0
   22.6130   15.4780    9.5040 C   0  0  0  0  0  3  0  0  0  0  0  0
   24.0770   13.7270   10.2660 C   0  0  0  0  0  3  0  0  0  0  0  0
   23.7380   14.6860    9.3130 C   0  0  0  0  0  3  0  0  0  0  0  0
  1  9  1  0
  1  2  2  0
  2  3  1  0
  4  2  1  0
  5  4  2  0
  6  7  2  0
  6  5  1  0
  7  1  1  0
  8  7  1  0
  9 10  2  0
 11  9  1  0
 12 11  1  0
 13 11  1  0
 13 14  1  0
 14 16  1  0
 15 13  1  0
 17 15  2  0
 18 15  1  0
 18 19  1  0
 19 16  1  0
 20 17  1  0
 21 18  2  0
 22 20  2  0
 22 21  1  0
M  RAD  8   4   2   5   2   6   2  13   2  14   3  16   3  17   2  20   2
M  RAD  2  21   2  22   2
M  END
>  <vina_score>  (1) 
-7.4290000000000003

>  <pose_id>  (1) 
1

$$$$

     RDKit          3D

 22 24  0  0  1  0  0  0  0  0999 V2000
   17.6280   14.5160   12.9060 C   0  0  0  0  0  0  0  0  0  0  0  0
   17.0840   15.3870   11.9590 C   0  0  0  0  0  0  0  0  0  0  0  0
   17.8260   16.3670   11.4230 F   0  0  0  0  0  0  0  0  0  0  0  0
   15.7590   15.2690   11.5440 C   0  0  0  0  0  3  0  0  0  0  0  0
   14.9560   14.2640   12.0780 C   0  0  0  0  0  3  0  0  0  0  0  0
   15.4850   13.3890   13.0290 C   0  0  0  0  0  3  0  0  0  0  0  0
   16.8180   13.5100   13.4450 C   0  0  0  0  0  0  0  0  0  0  0  0
   17.3570   12.4230   14.6760 Cl  0  0  0  0  0  0  0  0  0  0  0  0
   19.0510   14.6590   13.2790 C   0  0  0  0  0  0  0  0  0  0  0  0
   19.3790   15.3850   14.2090 O   0  0  0  0  0  0  0  0  0  0  0  0
   19.9470   13.9230   12.5340 N   0  0  0  0  0  0  0  0  0  0  0  0
   19.6020   13.2160   11.8960 H   0  0  0  0  0  0  0  0  0  0  0  0
   21.3670   13.8700   12.8750 C   0  0  0  0  0  3  0  0  0  0  0  0
   21.6360   12.5580   13.6250 C   0  0  0  0  0  2  0  0  0  0  0  0
   22.2170   14.0920   11.6350 C   0  0  0  0  0  0  0  0  0  0  0  0
   23.1090   12.3780   13.9220 C   0  0  0  0  0  2  0  0  0  0  0  0
   21.8670   15.1440   10.7590 C   0  0  0  0  0  3  0  0  0  0  0  0
   23.3730   13.3460   11.3480 C   0  0  0  0  0  0  0  0  0  0  0  0
   24.0060   12.0380   12.3860 S   0  0  0  0  0  0  0  0  0  0  0  0
   22.6060   15.4110    9.6080 C   0  0  0  0  0  3  0  0  0  0  0  0
   24.1040   13.6170   10.1800 C   0  0  0  0  0  3  0  0  0  0  0  0
   23.7230   14.6400    9.3130 C   0  0  0  0  0  3  0  0  0  0  0  0
  1  9  1  0
  1  7  1  0
  2  1  2  0
  3  2  1  0
  4  2  1  0
  4  5  2  0
  5  6  1  0
  6  7  2  0
  7  8  1  0
  9 10  2  0
 11  9  1  0
 12 11  1  0
 13 11  1  0
 13 14  1  0
 14 16  1  0
 15 13  1  0
 17 15  2  0
 18 15  1  0
 18 19  1  0
 19 16  1  0
 20 17  1  0
 21 18  2  0
 22 20  2  0
 22 21  1  0
M  RAD  8   4   2   5   2   6   2  13   2  14   3  16   3  17   2  20   2
M  RAD  2  21   2  22   2
M  END
>  <vina_score>  (2) 
-7.2530000000000001

>  <pose_id>  (2) 
2

$$$$

     RDKit          3D

 22 24  0  0  1  0  0  0  0  0999 V2000
   18.4140   14.9450   12.0900 C   0  0  0  0  0  0  0  0  0  0  0  0
   17.1240   14.7290   12.5810 C   0  0  0  0  0  0  0  0  0  0  0  0
   16.9350   14.1380   13.7700 F   0  0  0  0  0  0  0  0  0  0  0  0
   15.9990   15.1150   11.8550 C   0  0  0  0  0  3  0  0  0  0  0  0
   16.1550   15.7310   10.6170 C   0  0  0  0  0  3  0  0  0  0  0  0
   17.4380   15.9500   10.1110 C   0  0  0  0  0  3  0  0  0  0  0  0
   18.5690   15.5600   10.8420 C   0  0  0  0  0  0  0  0  0  0  0  0
   20.1080   15.8120   10.0990 Cl  0  0  0  0  0  0  0  0  0  0  0  0
   19.5740   14.5550   12.9190 C   0  0  0  0  0  0  0  0  0  0  0  0
   19.9000   15.2300   13.8860 O   0  0  0  0  0  0  0  0  0  0  0  0
   20.2260   13.4020   12.5380 N   0  0  0  0  0  0  0  0  0  0  0  0
   19.8080   12.8010   11.8390 H   0  0  0  0  0  0  0  0  0  0  0  0
   21.3060   12.8320   13.3410 C   0  0  0  0  0  3  0  0  0  0  0  0
   20.7520   11.6260   14.1120 C   0  0  0  0  0  2  0  0  0  0  0  0
   22.5160   12.5410   12.4690 C   0  0  0  0  0  0  0  0  0  0  0  0
   21.8380   10.9140   14.8890 C   0  0  0  0  0  2  0  0  0  0  0  0
   22.9330   13.5270   11.5470 C   0  0  0  0  0  3  0  0  0  0  0  0
   23.2810   11.3670   12.5770 C   0  0  0  0  0  0  0  0  0  0  0  0
   22.9470   10.0560   13.7430 S   0  0  0  0  0  0  0  0  0  0  0  0
   24.0390   13.3320   10.7200 C   0  0  0  0  0  3  0  0  0  0  0  0
   24.3870   11.1770   11.7330 C   0  0  0  0  0  3  0  0  0  0  0  0
   24.7630   12.1500   10.8080 C   0  0  0  0  0  3  0  0  0  0  0  0
  1  2  2  0
  1  9  1  0
  2  3  1  0
  4  2  1  0
  5  4  2  0
  6  5  1  0
  6  7  2  0
  7  1  1  0
  8  7  1  0
  9 10  2  0
 11  9  1  0
 12 11  1  0
 13 11  1  0
 13 14  1  0
 14 16  1  0
 15 18  1  0
 15 13  1  0
 17 15  2  0
 18 19  1  0
 19 16  1  0
 20 22  2  0
 20 17  1  0
 21 18  2  0
 22 21  1  0
M  RAD  8   4   2   5   2   6   2  13   2  14   3  16   3  17   2  20   2
M  RAD  2  21   2  22   2
M  END
>  <vina_score>  (3) 
-7.0439999999999996

>  <pose_id>  (3) 
3

$$$$

     RDKit          3D

 22 24  0  0  1  0  0  0  0  0999 V2000
   22.3010   13.3810   12.2920 C   0  0  0  0  0  0  0  0  0  0  0  0
   23.1160   13.8120   11.2430 C   0  0  0  0  0  0  0  0  0  0  0  0
   22.8780   14.9790   10.6260 F   0  0  0  0  0  0  0  0  0  0  0  0
   24.1950   13.0480   10.8030 C   0  0  0  0  0  3  0  0  0  0  0  0
   24.4730   11.8300   11.4190 C   0  0  0  0  0  3  0  0  0  0  0  0
   23.6650   11.3840   12.4650 C   0  0  0  0  0  3  0  0  0  0  0  0
   22.5790   12.1540   12.9060 C   0  0  0  0  0  0  0  0  0  0  0  0
   21.5990   11.4830   14.1600 Cl  0  0  0  0  0  0  0  0  0  0  0  0
   21.1960   14.2500   12.7470 C   0  0  0  0  0  0  0  0  0  0  0  0
   21.3900   15.1050   13.6010 O   0  0  0  0  0  0  0  0  0  0  0  0
   19.9750   14.0400   12.1430 N   0  0  0  0  0  0  0  0  0  0  0  0
   19.9190   13.4400   11.3290 H   0  0  0  0  0  0  0  0  0  0  0  0
   18.8310   14.9110   12.4030 C   0  0  0  0  0  3  0  0  0  0  0  0
   18.4930   15.6680   11.1120 C   0  0  0  0  0  2  0  0  0  0  0  0
   17.6850   14.1120   13.0030 C   0  0  0  0  0  0  0  0  0  0  0  0
   17.2490   16.5150   11.2690 C   0  0  0  0  0  2  0  0  0  0  0  0
   17.9720   13.2000   14.0420 C   0  0  0  0  0  3  0  0  0  0  0  0
   16.3430   14.2810   12.6190 C   0  0  0  0  0  0  0  0  0  0  0  0
   15.7920   15.4460   11.3830 S   0  0  0  0  0  0  0  0  0  0  0  0
   16.9700   12.4400   14.6440 C   0  0  0  0  0  3  0  0  0  0  0  0
   15.3430   13.5030   13.2250 C   0  0  0  0  0  3  0  0  0  0  0  0
   15.6530   12.5860   14.2290 C   0  0  0  0  0  3  0  0  0  0  0  0
  1  9  1  0
  1  7  1  0
  2  1  2  0
  3  2  1  0
  4  2  1  0
  4  5  2  0
  5  6  1  0
  6  7  2  0
  7  8  1  0
  9 10  2  0
 11  9  1  0
 12 11  1  0
 13 11  1  0
 13 15  1  0
 14 16  1  0
 14 13  1  0
 15 17  2  0
 16 19  1  0
 17 20  1  0
 18 15  1  0
 18 21  2  0
 19 18  1  0
 21 22  1  0
 22 20  2  0
M  RAD  8   4   2   5   2   6   2  13   2  14   3  16   3  17   2  20   2
M  RAD  2  21   2  22   2
M  END
>  <vina_score>  (4) 
-6.9809999999999999

>  <pose_id>  (4) 
4

$$$$

     RDKit          3D

 22 24  0  0  1  0  0  0  0  0999 V2000
   18.0800   10.1460   21.2920 C   0  0  0  0  0  0  0  0  0  0  0  0
   18.9110   10.9280   22.0990 C   0  0  0  0  0  0  0  0  0  0  0  0
   20.2360   10.9590   21.8900 F   0  0  0  0  0  0  0  0  0  0  0  0
   18.3950   11.6930   23.1420 C   0  0  0  0  0  3  0  0  0  0  0  0
   17.0250   11.6860   23.3900 C   0  0  0  0  0  3  0  0  0  0  0  0
   16.1830   10.9070   22.5960 C   0  0  0  0  0  3  0  0  0  0  0  0
   16.7040   10.1360   21.5470 C   0  0  0  0  0  0  0  0  0  0  0  0
   15.5890    9.1530   20.6670 Cl  0  0  0  0  0  0  0  0  0  0  0  0
   18.6740    9.3860   20.1730 C   0  0  0  0  0  0  0  0  0  0  0  0
   18.9170    8.1920   20.2930 O   0  0  0  0  0  0  0  0  0  0  0  0
   18.9100   10.0990   19.0170 N   0  0  0  0  0  0  0  0  0  0  0  0
   18.5320   11.0340   18.9230 H   0  0  0  0  0  0  0  0  0  0  0  0
   19.3720    9.4470   17.7940 C   0  0  0  0  0  3  0  0  0  0  0  0
   18.3600    9.7350   16.6780 C   0  0  0  0  0  2  0  0  0  0  0  0
   20.8050    9.8520   17.4890 C   0  0  0  0  0  0  0  0  0  0  0  0
   18.8220    9.1810   15.3480 C   0  0  0  0  0  2  0  0  0  0  0  0
   21.7450    9.8480   18.5440 C   0  0  0  0  0  3  0  0  0  0  0  0
   21.2580   10.1690   16.1970 C   0  0  0  0  0  0  0  0  0  0  0  0
   20.2280   10.1450   14.7380 S   0  0  0  0  0  0  0  0  0  0  0  0
   23.0780   10.2000   18.3350 C   0  0  0  0  0  3  0  0  0  0  0  0
   22.6010   10.5320   16.0000 C   0  0  0  0  0  3  0  0  0  0  0  0
   23.5050   10.5510   17.0610 C   0  0  0  0  0  3  0  0  0  0  0  0
  1  7  1  0
  1  2  2  0
  2  4  1  0
  3  2  1  0
  4  5  2  0
  6  5  1  0
  7  6  2  0
  8  7  1  0
  9 10  2  0
  9  1  1  0
 11  9  1  0
 12 11  1  0
 13 11  1  0
 14 13  1  0
 15 13  1  0
 15 17  2  0
 16 14  1  0
 18 15  1  0
 19 16  1  0
 19 18  1  0
 20 17  1  0
 21 18  2  0
 21 22  1  0
 22 20  2  0
M  RAD  8   4   2   5   2   6   2  13   2  14   3  16   3  17   2  20   2
M  RAD  2  21   2  22   2
M  END
>  <vina_score>  (5) 
-6.7089999999999996

>  <pose_id>  (5) 
5

$$$$
