
     RDKit          3D

 31 32  0  0  1  0  0  0  0  0999 V2000
   16.6700   12.6500   15.8460 C   0  0  0  0  0  0  0  0  0  0  0  0
   15.6580   12.0240   15.5360 O   0  0  0  0  0  0  0  0  0  0  0  0
   16.8020   14.0110   15.6370 N   0  0  0  0  0  0  0  0  0  0  0  0
   17.5710   14.4710   16.1130 H   0  0  0  0  0  0  0  0  0  0  0  0
   17.9430   11.9420   16.3670 C   0  0  0  0  0  3  0  0  0  0  0  0
   17.9620   11.9380   17.8380 N   0  0  0  0  0  0  0  0  0  0  0  0
   17.5140   10.8600   18.5700 C   0  0  0  0  0  0  0  0  0  0  0  0
   17.2200    9.7890   18.0500 O   0  0  0  0  0  0  0  0  0  0  0  0
   18.0830   12.8220   18.3230 H   0  0  0  0  0  0  0  0  0  0  0  0
   17.3950   11.0430   20.0500 C   0  0  0  0  0  0  0  0  0  0  0  0
   18.3780   11.6670   20.8520 C   0  0  0  0  0  0  0  0  0  0  0  0
   18.1630   11.7630   22.2340 C   0  0  0  0  0  3  0  0  0  0  0  0
   16.9870   11.2690   22.8130 C   0  0  0  0  0  3  0  0  0  0  0  0
   16.2120   10.5630   20.6420 C   0  0  0  0  0  3  0  0  0  0  0  0
   16.0100   10.6770   22.0170 C   0  0  0  0  0  3  0  0  0  0  0  0
   19.4910   12.1720   20.2180 O   0  0  0  0  0  0  0  0  0  0  0  0
   20.7270   11.4890   20.4070 C   0  0  0  0  0  1  0  0  0  0  0  0
   19.2060   12.6420   15.8490 C   0  0  0  0  0  2  0  0  0  0  0  0
   20.0870   11.7170   15.0120 C   0  0  0  0  0  2  0  0  0  0  0  0
   19.9330   12.1050   13.2320 S   0  0  0  0  0  0  0  0  0  0  0  0
   21.6880   12.0790   12.7730 C   0  0  0  0  0  1  0  0  0  0  0  0
   15.6870   14.8280   15.2010 C   0  0  0  0  0  2  0  0  0  0  0  0
   16.0250   15.5950   13.9230 C   0  0  0  0  0  2  0  0  0  0  0  0
   15.9740   14.7120   12.6760 C   0  0  0  0  0  2  0  0  0  0  0  0
   16.7360   15.2500   11.5600 N   0  0  0  0  0  0  0  0  0  0  0  0
   18.0770   15.1090   11.5620 N   0  0  0  0  0  0  0  0  0  0  0  0
   16.2620   15.9090   10.4500 C   0  0  0  0  0  0  0  0  0  0  0  0
   18.4700   15.6990   10.4270 C   0  0  0  0  0  0  0  0  0  0  0  0
   17.3770   16.2140    9.6960 C   0  0  0  0  0  3  0  0  0  0  0  0
   14.8300   16.1970   10.2010 C   0  0  0  0  0  1  0  0  0  0  0  0
   19.9110   15.7470   10.0740 C   0  0  0  0  0  1  0  0  0  0  0  0
  1  5  1  0
  2  1  2  0
  3  1  1  0
  3  4  1  0
  5 18  1  0
  5  6  1  0
  6  9  1  0
  6  7  1  0
  7 10  1  0
  8  7  2  0
 10 14  2  0
 10 11  1  0
 11 12  2  0
 12 13  1  0
 14 15  1  0
 15 13  2  0
 16 17  1  0
 16 11  1  0
 19 18  1  0
 20 19  1  0
 21 20  1  0
 22  3  1  0
 23 22  1  0
 24 23  1  0
 25 26  1  0
 25 24  1  0
 27 25  1  0
 28 26  2  0
 29 28  1  0
 29 27  2  0
 30 27  1  0
 31 28  1  0
M  RAD  8   5   2  12   2  13   2  14   2  15   2  17   2  18   3  19   3
M  RAD  7  21   2  22   3  23   3  24   3  29   2  30   2  31   2
M  END
>  <vina_score>  (1) 
-6.9240000000000004

>  <pose_id>  (1) 
1

$$$$

     RDKit          3D

 31 32  0  0  1  0  0  0  0  0999 V2000
   18.9950   11.2340   16.6600 C   0  0  0  0  0  0  0  0  0  0  0  0
   18.0760   10.5390   17.0900 O   0  0  0  0  0  0  0  0  0  0  0  0
   20.2440   11.2740   17.2530 N   0  0  0  0  0  0  0  0  0  0  0  0
   20.9890   11.7010   16.7140 H   0  0  0  0  0  0  0  0  0  0  0  0
   18.7900   12.2350   15.4980 C   0  0  0  0  0  3  0  0  0  0  0  0
   20.0880   12.6980   14.9850 N   0  0  0  0  0  0  0  0  0  0  0  0
   20.5080   12.4140   13.7040 C   0  0  0  0  0  0  0  0  0  0  0  0
   19.7730   11.8970   12.8700 O   0  0  0  0  0  0  0  0  0  0  0  0
   20.7830   13.0260   15.6500 H   0  0  0  0  0  0  0  0  0  0  0  0
   21.9220   12.7620   13.3570 C   0  0  0  0  0  0  0  0  0  0  0  0
   23.0400   12.4130   14.1490 C   0  0  0  0  0  0  0  0  0  0  0  0
   24.3170   12.8130   13.7310 C   0  0  0  0  0  3  0  0  0  0  0  0
   24.4900   13.5290   12.5400 C   0  0  0  0  0  3  0  0  0  0  0  0
   22.1110   13.4690   12.1560 C   0  0  0  0  0  3  0  0  0  0  0  0
   23.3900   13.8500   11.7500 C   0  0  0  0  0  3  0  0  0  0  0  0
   22.8090   11.6710   15.2850 O   0  0  0  0  0  0  0  0  0  0  0  0
   23.2060   10.3030   15.2750 C   0  0  0  0  0  1  0  0  0  0  0  0
   17.9710   13.4460   15.9630 C   0  0  0  0  0  2  0  0  0  0  0  0
   17.1510   14.0670   14.8340 C   0  0  0  0  0  2  0  0  0  0  0  0
   16.3580   12.7720   13.8170 S   0  0  0  0  0  0  0  0  0  0  0  0
   15.2480   13.8130   12.8290 C   0  0  0  0  0  1  0  0  0  0  0  0
   20.6120   10.3630   18.3190 C   0  0  0  0  0  2  0  0  0  0  0  0
   20.3430   10.9770   19.6930 C   0  0  0  0  0  2  0  0  0  0  0  0
   19.8490    9.9480   20.7100 C   0  0  0  0  0  2  0  0  0  0  0  0
   18.6960   10.4010   21.4720 N   0  0  0  0  0  0  0  0  0  0  0  0
   18.8940   11.2340   22.5130 N   0  0  0  0  0  0  0  0  0  0  0  0
   17.3720   10.0890   21.2710 C   0  0  0  0  0  0  0  0  0  0  0  0
   17.6640   11.4550   22.9940 C   0  0  0  0  0  0  0  0  0  0  0  0
   16.6790   10.7640   22.2540 C   0  0  0  0  0  3  0  0  0  0  0  0
   16.8810    9.1940   20.1970 C   0  0  0  0  0  1  0  0  0  0  0  0
   17.4730   12.3420   24.1680 C   0  0  0  0  0  1  0  0  0  0  0  0
  1  2  2  0
  1  3  1  0
  3 22  1  0
  4  3  1  0
  5 18  1  0
  5  1  1  0
  6  5  1  0
  6  9  1  0
  7  6  1  0
  8  7  2  0
 10  7  1  0
 10 11  1  0
 11 16  1  0
 12 11  2  0
 13 12  1  0
 14 10  2  0
 15 14  1  0
 15 13  2  0
 17 16  1  0
 19 18  1  0
 20 19  1  0
 21 20  1  0
 22 23  1  0
 23 24  1  0
 24 25  1  0
 25 26  1  0
 26 28  2  0
 27 25  1  0
 27 29  2  0
 28 31  1  0
 29 28  1  0
 30 27  1  0
M  RAD  8   5   2  12   2  13   2  14   2  15   2  17   2  18   3  19   3
M  RAD  7  21   2  22   3  23   3  24   3  29   2  30   2  31   2
M  END
>  <vina_score>  (2) 
-6.7220000000000004

>  <pose_id>  (2) 
2

$$$$

     RDKit          3D

 31 32  0  0  1  0  0  0  0  0999 V2000
   19.3290   11.0970   16.6910 C   0  0  0  0  0  0  0  0  0  0  0  0
   19.4120    9.9050   16.3980 O   0  0  0  0  0  0  0  0  0  0  0  0
   19.8870   11.6250   17.8410 N   0  0  0  0  0  0  0  0  0  0  0  0
   19.9530   12.6360   17.8900 H   0  0  0  0  0  0  0  0  0  0  0  0
   18.4690   12.0840   15.8670 C   0  0  0  0  0  3  0  0  0  0  0  0
   19.3270   12.9580   15.0530 N   0  0  0  0  0  0  0  0  0  0  0  0
   19.2280   13.0030   13.6800 C   0  0  0  0  0  0  0  0  0  0  0  0
   18.3250   12.4430   13.0670 O   0  0  0  0  0  0  0  0  0  0  0  0
   20.1600   13.3530   15.4810 H   0  0  0  0  0  0  0  0  0  0  0  0
   20.2800   13.7730   12.9450 C   0  0  0  0  0  0  0  0  0  0  0  0
   21.6640   13.6790   13.2170 C   0  0  0  0  0  0  0  0  0  0  0  0
   22.5550   14.4670   12.4750 C   0  0  0  0  0  3  0  0  0  0  0  0
   22.0890   15.3180   11.4650 C   0  0  0  0  0  3  0  0  0  0  0  0
   19.8260   14.6220   11.9190 C   0  0  0  0  0  3  0  0  0  0  0  0
   20.7280   15.3900   11.1830 C   0  0  0  0  0  3  0  0  0  0  0  0
   22.0640   12.7920   14.1910 O   0  0  0  0  0  0  0  0  0  0  0  0
   22.6010   11.5420   13.7690 C   0  0  0  0  0  1  0  0  0  0  0  0
   17.6010   12.9490   16.7900 C   0  0  0  0  0  2  0  0  0  0  0  0
   16.1900   13.1570   16.2420 C   0  0  0  0  0  2  0  0  0  0  0  0
   16.0320   14.8040   15.4620 S   0  0  0  0  0  0  0  0  0  0  0  0
   15.2220   15.6940   16.8200 C   0  0  0  0  0  1  0  0  0  0  0  0
   20.7620   10.8450   18.6930 C   0  0  0  0  0  2  0  0  0  0  0  0
   20.7650   11.3780   20.1260 C   0  0  0  0  0  2  0  0  0  0  0  0
   20.3000   10.3350   21.1420 C   0  0  0  0  0  2  0  0  0  0  0  0
   18.9930   10.6280   21.7090 N   0  0  0  0  0  0  0  0  0  0  0  0
   18.9240   11.3830   22.8240 N   0  0  0  0  0  0  0  0  0  0  0  0
   17.7610   10.2280   21.2480 C   0  0  0  0  0  0  0  0  0  0  0  0
   17.6140   11.4620   23.0850 C   0  0  0  0  0  0  0  0  0  0  0  0
   16.8440   10.7600   22.1310 C   0  0  0  0  0  3  0  0  0  0  0  0
   17.5540    9.3920   20.0420 C   0  0  0  0  0  1  0  0  0  0  0  0
   17.1350   12.2270   24.2630 C   0  0  0  0  0  1  0  0  0  0  0  0
  1  3  1  0
  2  1  2  0
  3  4  1  0
  3 22  1  0
  5  1  1  0
  5 18  1  0
  6  9  1  0
  6  5  1  0
  7  6  1  0
  8  7  2  0
 10 11  1  0
 10  7  1  0
 11 16  1  0
 12 11  2  0
 13 12  1  0
 14 10  2  0
 15 13  2  0
 15 14  1  0
 17 16  1  0
 19 18  1  0
 20 19  1  0
 20 21  1  0
 22 23  1  0
 23 24  1  0
 24 25  1  0
 25 26  1  0
 26 28  2  0
 27 25  1  0
 27 29  2  0
 28 31  1  0
 29 28  1  0
 30 27  1  0
M  RAD  8   5   2  12   2  13   2  14   2  15   2  17   2  18   3  19   3
M  RAD  7  21   2  22   3  23   3  24   3  29   2  30   2  31   2
M  END
>  <vina_score>  (3) 
-6.7140000000000004

>  <pose_id>  (3) 
3

$$$$

     RDKit          3D

 31 32  0  0  1  0  0  0  0  0999 V2000
   22.3780   10.4700   16.8650 C   0  0  0  0  0  0  0  0  0  0  0  0
   23.5620   10.8050   16.8470 O   0  0  0  0  0  0  0  0  0  0  0  0
   21.6870   10.2220   18.0370 N   0  0  0  0  0  0  0  0  0  0  0  0
   20.6770   10.1630   17.9650 H   0  0  0  0  0  0  0  0  0  0  0  0
   21.5970   10.1560   15.5670 C   0  0  0  0  0  3  0  0  0  0  0  0
   21.8480   11.1920   14.5540 N   0  0  0  0  0  0  0  0  0  0  0  0
   22.2700   10.8790   13.2800 C   0  0  0  0  0  0  0  0  0  0  0  0
   22.3140    9.7260   12.8660 O   0  0  0  0  0  0  0  0  0  0  0  0
   21.9420   12.1570   14.8600 H   0  0  0  0  0  0  0  0  0  0  0  0
   22.6840   12.0170   12.4000 C   0  0  0  0  0  0  0  0  0  0  0  0
   21.9940   13.2480   12.3220 C   0  0  0  0  0  0  0  0  0  0  0  0
   22.4650   14.2350   11.4450 C   0  0  0  0  0  3  0  0  0  0  0  0
   23.6130   14.0170   10.6720 C   0  0  0  0  0  3  0  0  0  0  0  0
   23.8430   11.8170   11.6290 C   0  0  0  0  0  3  0  0  0  0  0  0
   24.3050   12.8130   10.7690 C   0  0  0  0  0  3  0  0  0  0  0  0
   20.8990   13.4190   13.1400 O   0  0  0  0  0  0  0  0  0  0  0  0
   20.8760   14.5630   13.9860 C   0  0  0  0  0  1  0  0  0  0  0  0
   20.0900   10.0770   15.8440 C   0  0  0  0  0  2  0  0  0  0  0  0
   19.3540   11.3550   15.4450 C   0  0  0  0  0  2  0  0  0  0  0  0
   18.5640   12.1320   16.8990 S   0  0  0  0  0  0  0  0  0  0  0  0
   17.7520   13.5320   16.0780 C   0  0  0  0  0  1  0  0  0  0  0  0
   22.2590   10.5140   19.3370 C   0  0  0  0  0  2  0  0  0  0  0  0
   21.2630   11.2510   20.2310 C   0  0  0  0  0  2  0  0  0  0  0  0
   20.7380   10.3780   21.3710 C   0  0  0  0  0  2  0  0  0  0  0  0
   19.3750   10.6990   21.7600 N   0  0  0  0  0  0  0  0  0  0  0  0
   19.1770   11.5340   22.8010 N   0  0  0  0  0  0  0  0  0  0  0  0
   18.2040   10.2560   21.1920 C   0  0  0  0  0  0  0  0  0  0  0  0
   17.8450   11.6200   22.9030 C   0  0  0  0  0  0  0  0  0  0  0  0
   17.1910   10.8430   21.9220 C   0  0  0  0  0  3  0  0  0  0  0  0
   18.1380    9.3310   20.0360 C   0  0  0  0  0  1  0  0  0  0  0  0
   17.2340   12.4660   23.9580 C   0  0  0  0  0  1  0  0  0  0  0  0
  1  3  1  0
  2  1  2  0
  3 22  1  0
  4  3  1  0
  5 18  1  0
  5  1  1  0
  6  9  1  0
  6  5  1  0
  7  6  1  0
  8  7  2  0
 10  7  1  0
 11 10  1  0
 11 16  1  0
 12 11  2  0
 13 15  2  0
 13 12  1  0
 14 10  2  0
 15 14  1  0
 16 17  1  0
 19 18  1  0
 19 20  1  0
 21 20  1  0
 22 23  1  0
 23 24  1  0
 24 25  1  0
 25 26  1  0
 26 28  2  0
 27 25  1  0
 27 29  2  0
 28 31  1  0
 29 28  1  0
 30 27  1  0
M  RAD  8   5   2  12   2  13   2  14   2  15   2  17   2  18   3  19   3
M  RAD  7  21   2  22   3  23   3  24   3  29   2  30   2  31   2
M  END
>  <vina_score>  (4) 
-6.585

>  <pose_id>  (4) 
4

$$$$

     RDKit          3D

 31 32  0  0  1  0  0  0  0  0999 V2000
   16.5000   12.5990   16.1080 C   0  0  0  0  0  0  0  0  0  0  0  0
   15.8910   13.3530   16.8650 O   0  0  0  0  0  0  0  0  0  0  0  0
   16.1310   12.4030   14.7890 N   0  0  0  0  0  0  0  0  0  0  0  0
   16.8070   11.9380   14.1930 H   0  0  0  0  0  0  0  0  0  0  0  0
   17.6490   11.6910   16.6080 C   0  0  0  0  0  3  0  0  0  0  0  0
   17.7840   11.7910   18.0690 N   0  0  0  0  0  0  0  0  0  0  0  0
   17.4560   10.7460   18.9040 C   0  0  0  0  0  0  0  0  0  0  0  0
   17.1820    9.6270   18.4820 O   0  0  0  0  0  0  0  0  0  0  0  0
   17.8920   12.7120   18.4830 H   0  0  0  0  0  0  0  0  0  0  0  0
   17.4430   11.0260   20.3740 C   0  0  0  0  0  0  0  0  0  0  0  0
   18.5080   11.6410   21.0710 C   0  0  0  0  0  0  0  0  0  0  0  0
   18.3890   11.8340   22.4550 C   0  0  0  0  0  3  0  0  0  0  0  0
   17.2290   11.4450   23.1360 C   0  0  0  0  0  3  0  0  0  0  0  0
   16.2770   10.6530   21.0680 C   0  0  0  0  0  3  0  0  0  0  0  0
   16.1720   10.8630   22.4430 C   0  0  0  0  0  3  0  0  0  0  0  0
   19.6030   12.0400   20.3390 O   0  0  0  0  0  0  0  0  0  0  0  0
   20.7990   11.2780   20.4660 C   0  0  0  0  0  1  0  0  0  0  0  0
   18.9780   12.0860   15.9510 C   0  0  0  0  0  2  0  0  0  0  0  0
   19.4470   11.0630   14.9170 C   0  0  0  0  0  2  0  0  0  0  0  0
   18.5290    9.4910   15.0940 S   0  0  0  0  0  0  0  0  0  0  0  0
   19.6920    8.5910   16.1570 C   0  0  0  0  0  1  0  0  0  0  0  0
   15.1080   13.2100   14.1550 C   0  0  0  0  0  2  0  0  0  0  0  0
   15.4900   13.5650   12.7180 C   0  0  0  0  0  2  0  0  0  0  0  0
   16.1980   14.9160   12.6160 C   0  0  0  0  0  2  0  0  0  0  0  0
   17.5730   14.8810   13.0860 N   0  0  0  0  0  0  0  0  0  0  0  0
   18.5000   14.2550   12.3340 N   0  0  0  0  0  0  0  0  0  0  0  0
   18.0880   15.4230   14.2400 C   0  0  0  0  0  0  0  0  0  0  0  0
   19.6360   14.3950   13.0280 C   0  0  0  0  0  0  0  0  0  0  0  0
   19.4330   15.1170   14.2260 C   0  0  0  0  0  3  0  0  0  0  0  0
   17.2860   16.1620   15.2430 C   0  0  0  0  0  1  0  0  0  0  0  0
   20.9020   13.8230   12.5080 C   0  0  0  0  0  1  0  0  0  0  0  0
  1  5  1  0
  1  2  2  0
  3  1  1  0
  4  3  1  0
  5 18  1  0
  5  6  1  0
  6  9  1  0
  6  7  1  0
  7 10  1  0
  8  7  2  0
 10 14  2  0
 10 11  1  0
 11 12  2  0
 12 13  1  0
 14 15  1  0
 15 13  2  0
 16 17  1  0
 16 11  1  0
 19 20  1  0
 19 18  1  0
 20 21  1  0
 22  3  1  0
 23 22  1  0
 24 23  1  0
 24 25  1  0
 25 27  1  0
 26 28  2  0
 26 25  1  0
 27 30  1  0
 28 29  1  0
 29 27  2  0
 31 28  1  0
M  RAD  8   5   2  12   2  13   2  14   2  15   2  17   2  18   3  19   3
M  RAD  7  21   2  22   3  23   3  24   3  29   2  30   2  31   2
M  END
>  <vina_score>  (5) 
-6.415

>  <pose_id>  (5) 
5

$$$$
