
     RDKit          3D

 25 27  0  0  1  0  0  0  0  0999 V2000
   20.0910   14.0110   14.1260 N   0  0  0  0  0  0  0  0  0  0  0  0
   18.7640   13.6390   13.9550 C   0  0  0  0  0  0  0  0  0  0  0  0
   18.3500   12.8760   13.0880 O   0  0  0  0  0  0  0  0  0  0  0  0
   20.3410   14.4290   15.0100 H   0  0  0  0  0  0  0  0  0  0  0  0
   21.1660   13.7630   13.2460 C   0  0  0  0  0  0  0  0  0  0  0  0
   23.2730   13.4110   11.4020 C   0  0  0  0  0  0  0  0  0  0  0  0
   22.9050   12.3800   12.2710 C   0  0  0  0  0  3  0  0  0  0  0  0
   22.5660   14.6170   11.4500 C   0  0  0  0  0  3  0  0  0  0  0  0
   21.8600   12.5550   13.1860 C   0  0  0  0  0  3  0  0  0  0  0  0
   21.5200   14.7890   12.3630 C   0  0  0  0  0  3  0  0  0  0  0  0
   24.3770   13.2230   10.4050 C   0  0  0  0  0  1  0  0  0  0  0  0
   17.8450   14.2060   15.0480 C   0  0  0  0  0  3  0  0  0  0  0  0
   16.9450   13.1070   15.6360 C   0  0  0  0  0  2  0  0  0  0  0  0
   17.0450   15.4540   14.5950 C   0  0  0  0  0  3  0  0  0  0  0  0
   15.8780   13.6430   16.5440 C   0  0  0  0  0  3  0  0  0  0  0  0
   16.1790   15.9950   15.7490 C   0  0  0  0  0  2  0  0  0  0  0  0
   15.5480   14.9390   16.6070 C   0  0  0  0  0  3  0  0  0  0  0  0
   16.1980   15.2070   13.3370 C   0  0  0  0  0  0  0  0  0  0  0  0
   15.1340   14.5890   13.4030 O   0  0  0  0  0  0  0  0  0  0  0  0
   16.6530   15.7060   12.1170 N   0  0  0  0  0  0  0  0  0  0  0  0
   17.9700   16.2920   11.8550 C   0  0  0  0  0  2  0  0  0  0  0  0
   15.7790   15.5050   10.9570 C   0  0  0  0  0  2  0  0  0  0  0  0
   18.5200   15.8360   10.5070 C   0  0  0  0  0  2  0  0  0  0  0  0
   16.1450   16.4110    9.7870 C   0  0  0  0  0  2  0  0  0  0  0  0
   17.5950   16.2180    9.3490 C   0  0  0  0  0  2  0  0  0  0  0  0
  1  4  1  0
  2  1  1  0
  3  2  2  0
  5  1  1  0
  6  8  2  0
  6  7  1  0
  7  9  2  0
  8 10  1  0
  9  5  1  0
 10  5  2  0
 11  6  1  0
 12  2  1  0
 12 13  1  0
 13 15  1  0
 14 18  1  0
 14 12  1  0
 14 16  1  0
 15 17  2  0
 16 17  1  0
 18 19  2  0
 20 18  1  0
 21 20  1  0
 22 20  1  0
 23 21  1  0
 24 22  1  0
 25 24  1  0
 25 23  1  0
M  RAD  8   7   2   8   2   9   2  10   2  11   2  12   2  13   3  14   2
M  RAD  8  15   2  16   3  17   2  21   3  22   3  23   3  24   3  25   3
M  END
>  <vina_score>  (1) 
-8.0850000000000009

>  <pose_id>  (1) 
1

$$$$

     RDKit          3D

 25 27  0  0  1  0  0  0  0  0999 V2000
   16.4430   13.2840   15.7330 N   0  0  0  0  0  0  0  0  0  0  0  0
   16.5850   14.6460   15.4970 C   0  0  0  0  0  0  0  0  0  0  0  0
   17.0070   15.4640   16.3080 O   0  0  0  0  0  0  0  0  0  0  0  0
   16.3340   12.6870   14.9270 H   0  0  0  0  0  0  0  0  0  0  0  0
   16.5540   12.6190   16.9720 C   0  0  0  0  0  0  0  0  0  0  0  0
   16.9400   11.2500   19.4100 C   0  0  0  0  0  0  0  0  0  0  0  0
   15.6580   11.6220   18.9950 C   0  0  0  0  0  3  0  0  0  0  0  0
   18.0290   11.5520   18.5870 C   0  0  0  0  0  3  0  0  0  0  0  0
   15.4670   12.3000   17.7850 C   0  0  0  0  0  3  0  0  0  0  0  0
   17.8360   12.2290   17.3770 C   0  0  0  0  0  3  0  0  0  0  0  0
   17.1490   10.5030   20.6930 C   0  0  0  0  0  1  0  0  0  0  0  0
   16.2520   15.0320   14.0480 C   0  0  0  0  0  3  0  0  0  0  0  0
   15.0870   14.1870   13.5060 C   0  0  0  0  0  2  0  0  0  0  0  0
   17.4850   15.0210   13.1080 C   0  0  0  0  0  3  0  0  0  0  0  0
   14.8670   14.3640   12.0330 C   0  0  0  0  0  3  0  0  0  0  0  0
   17.0890   15.4570   11.6840 C   0  0  0  0  0  2  0  0  0  0  0  0
   15.7570   14.9480   11.2210 C   0  0  0  0  0  3  0  0  0  0  0  0
   18.2190   13.6720   13.0880 C   0  0  0  0  0  0  0  0  0  0  0  0
   17.5930   12.6110   13.0710 O   0  0  0  0  0  0  0  0  0  0  0  0
   19.6140   13.6710   13.0810 N   0  0  0  0  0  0  0  0  0  0  0  0
   20.4850   14.8330   13.2830 C   0  0  0  0  0  2  0  0  0  0  0  0
   20.2710   12.3630   12.9930 C   0  0  0  0  0  2  0  0  0  0  0  0
   21.6850   14.4780   14.1550 C   0  0  0  0  0  2  0  0  0  0  0  0
   21.7360   12.4720   12.5860 C   0  0  0  0  0  2  0  0  0  0  0  0
   22.5290   13.3570   13.5460 C   0  0  0  0  0  2  0  0  0  0  0  0
  1  5  1  0
  2  1  1  0
  2  3  2  0
  4  1  1  0
  5 10  2  0
  5  9  1  0
  6 11  1  0
  7  6  1  0
  8  6  2  0
  9  7  2  0
 10  8  1  0
 12  2  1  0
 13 12  1  0
 14 18  1  0
 14 12  1  0
 15 13  1  0
 16 14  1  0
 17 16  1  0
 17 15  2  0
 19 18  2  0
 20 18  1  0
 20 21  1  0
 21 23  1  0
 22 20  1  0
 24 22  1  0
 24 25  1  0
 25 23  1  0
M  RAD  8   7   2   8   2   9   2  10   2  11   2  12   2  13   3  14   2
M  RAD  8  15   2  16   3  17   2  21   3  22   3  23   3  24   3  25   3
M  END
>  <vina_score>  (2) 
-7.1989999999999998

>  <pose_id>  (2) 
2

$$$$

     RDKit          3D

 25 27  0  0  1  0  0  0  0  0999 V2000
   19.5790   14.7300   12.7910 N   0  0  0  0  0  0  0  0  0  0  0  0
   19.2750   15.1620   14.0760 C   0  0  0  0  0  0  0  0  0  0  0  0
   20.0970   15.3980   14.9550 O   0  0  0  0  0  0  0  0  0  0  0  0
   18.8540   14.8160   12.0940 H   0  0  0  0  0  0  0  0  0  0  0  0
   20.8320   14.2920   12.3130 C   0  0  0  0  0  0  0  0  0  0  0  0
   23.3300   13.5390   11.2370 C   0  0  0  0  0  0  0  0  0  0  0  0
   22.6800   12.7260   12.1700 C   0  0  0  0  0  3  0  0  0  0  0  0
   22.7120   14.7250   10.8310 C   0  0  0  0  0  3  0  0  0  0  0  0
   21.4410   13.1000   12.7040 C   0  0  0  0  0  3  0  0  0  0  0  0
   21.4730   15.0970   11.3640 C   0  0  0  0  0  3  0  0  0  0  0  0
   24.6460   13.1330   10.6450 C   0  0  0  0  0  1  0  0  0  0  0  0
   17.7740   15.4240   14.2720 C   0  0  0  0  0  3  0  0  0  0  0  0
   17.5310   16.3760   15.4550 C   0  0  0  0  0  2  0  0  0  0  0  0
   16.9290   14.1280   14.3650 C   0  0  0  0  0  3  0  0  0  0  0  0
   16.0830   16.4900   15.8310 C   0  0  0  0  0  3  0  0  0  0  0  0
   15.4330   14.4630   14.5190 C   0  0  0  0  0  2  0  0  0  0  0  0
   15.1410   15.6430   15.3970 C   0  0  0  0  0  3  0  0  0  0  0  0
   17.3980   13.1770   15.4760 C   0  0  0  0  0  0  0  0  0  0  0  0
   17.4490   13.5510   16.6490 O   0  0  0  0  0  0  0  0  0  0  0  0
   17.7570   11.8740   15.1320 N   0  0  0  0  0  0  0  0  0  0  0  0
   17.9210   11.3480   13.7740 C   0  0  0  0  0  2  0  0  0  0  0  0
   18.1330   10.9820   16.2330 C   0  0  0  0  0  2  0  0  0  0  0  0
   19.1330   10.4260   13.6810 C   0  0  0  0  0  2  0  0  0  0  0  0
   18.1110    9.5130   15.8280 C   0  0  0  0  0  2  0  0  0  0  0  0
   19.0270    9.2370   14.6370 C   0  0  0  0  0  2  0  0  0  0  0  0
  1  2  1  0
  2  3  2  0
  4  1  1  0
  5  9  1  0
  5  1  1  0
  6  7  1  0
  7  9  2  0
  8  6  2  0
  8 10  1  0
 10  5  2  0
 11  6  1  0
 12  2  1  0
 12 14  1  0
 12 13  1  0
 13 15  1  0
 14 16  1  0
 14 18  1  0
 16 17  1  0
 17 15  2  0
 18 19  2  0
 20 18  1  0
 20 22  1  0
 21 20  1  0
 23 21  1  0
 23 25  1  0
 24 22  1  0
 25 24  1  0
M  RAD  8   7   2   8   2   9   2  10   2  11   2  12   2  13   3  14   2
M  RAD  8  15   2  16   3  17   2  21   3  22   3  23   3  24   3  25   3
M  END
>  <vina_score>  (3) 
-6.9160000000000004

>  <pose_id>  (3) 
3

$$$$

     RDKit          3D

 25 27  0  0  1  0  0  0  0  0999 V2000
   22.2310   13.7660   13.0730 N   0  0  0  0  0  0  0  0  0  0  0  0
   22.7290   12.4740   12.9590 C   0  0  0  0  0  0  0  0  0  0  0  0
   22.6660   11.7780   11.9510 O   0  0  0  0  0  0  0  0  0  0  0  0
   22.5630   14.3200   13.8480 H   0  0  0  0  0  0  0  0  0  0  0  0
   21.3990   14.4420   12.1550 C   0  0  0  0  0  0  0  0  0  0  0  0
   19.5990   15.7160   10.3940 C   0  0  0  0  0  0  0  0  0  0  0  0
   20.9760   15.7520   10.1570 C   0  0  0  0  0  3  0  0  0  0  0  0
   19.1260   15.0220   11.5120 C   0  0  0  0  0  3  0  0  0  0  0  0
   21.8690   15.1190   11.0300 C   0  0  0  0  0  3  0  0  0  0  0  0
   20.0190   14.3890   12.3830 C   0  0  0  0  0  3  0  0  0  0  0  0
   18.6370   16.3720    9.4500 C   0  0  0  0  0  1  0  0  0  0  0  0
   23.4820   12.0180   14.2180 C   0  0  0  0  0  3  0  0  0  0  0  0
   24.7950   11.3090   13.8480 C   0  0  0  0  0  2  0  0  0  0  0  0
   22.6080   11.1870   15.1920 C   0  0  0  0  0  3  0  0  0  0  0  0
   25.4590   10.6490   15.0210 C   0  0  0  0  0  3  0  0  0  0  0  0
   23.4110   10.7990   16.4490 C   0  0  0  0  0  2  0  0  0  0  0  0
   24.8430   10.4370   16.1910 C   0  0  0  0  0  3  0  0  0  0  0  0
   21.9790    9.9490   14.5350 C   0  0  0  0  0  0  0  0  0  0  0  0
   22.6720    8.9800   14.2180 O   0  0  0  0  0  0  0  0  0  0  0  0
   20.6030    9.9380   14.3130 N   0  0  0  0  0  0  0  0  0  0  0  0
   19.6890   11.0740   14.4650 C   0  0  0  0  0  2  0  0  0  0  0  0
   20.0370    8.7100   13.7460 C   0  0  0  0  0  2  0  0  0  0  0  0
   18.6590   11.1100   13.3400 C   0  0  0  0  0  2  0  0  0  0  0  0
   18.5240    8.6320   13.9150 C   0  0  0  0  0  2  0  0  0  0  0  0
   17.8190    9.8330   13.2870 C   0  0  0  0  0  2  0  0  0  0  0  0
  1  4  1  0
  2  1  1  0
  3  2  2  0
  5 10  2  0
  5  1  1  0
  6  8  2  0
  7  6  1  0
  7  9  2  0
  8 10  1  0
  9  5  1  0
 11  6  1  0
 12  2  1  0
 12 14  1  0
 13 12  1  0
 13 15  1  0
 14 18  1  0
 14 16  1  0
 15 17  2  0
 17 16  1  0
 19 18  2  0
 20 21  1  0
 20 18  1  0
 22 24  1  0
 22 20  1  0
 23 21  1  0
 25 23  1  0
 25 24  1  0
M  RAD  8   7   2   8   2   9   2  10   2  11   2  12   2  13   3  14   2
M  RAD  8  15   2  16   3  17   2  21   3  22   3  23   3  24   3  25   3
M  END
>  <vina_score>  (4) 
-6.8680000000000003

>  <pose_id>  (4) 
4

$$$$

     RDKit          3D

 25 27  0  0  1  0  0  0  0  0999 V2000
   18.2290   10.6340   18.3870 N   0  0  0  0  0  0  0  0  0  0  0  0
   18.5610   11.5610   17.4060 C   0  0  0  0  0  0  0  0  0  0  0  0
   18.7930   12.7490   17.6070 O   0  0  0  0  0  0  0  0  0  0  0  0
   18.3120    9.6580   18.1430 H   0  0  0  0  0  0  0  0  0  0  0  0
   17.8990   10.8980   19.7330 C   0  0  0  0  0  0  0  0  0  0  0  0
   17.4060   11.4620   22.4540 C   0  0  0  0  0  0  0  0  0  0  0  0
   16.4300   10.8480   21.6630 C   0  0  0  0  0  3  0  0  0  0  0  0
   18.6400   11.7770   21.8770 C   0  0  0  0  0  3  0  0  0  0  0  0
   16.6750   10.5680   20.3140 C   0  0  0  0  0  3  0  0  0  0  0  0
   18.8840   11.4950   20.5280 C   0  0  0  0  0  3  0  0  0  0  0  0
   17.1580   11.7450   23.9050 C   0  0  0  0  0  1  0  0  0  0  0  0
   18.7170   10.9230   16.0180 C   0  0  0  0  0  3  0  0  0  0  0  0
   20.2010   10.7800   15.6420 C   0  0  0  0  0  2  0  0  0  0  0  0
   17.8880   11.6310   14.9170 C   0  0  0  0  0  3  0  0  0  0  0  0
   20.4100   10.3720   14.2130 C   0  0  0  0  0  3  0  0  0  0  0  0
   18.0580   10.9170   13.5620 C   0  0  0  0  0  2  0  0  0  0  0  0
   19.4440   10.4170   13.2870 C   0  0  0  0  0  3  0  0  0  0  0  0
   18.2000   13.1310   14.7930 C   0  0  0  0  0  0  0  0  0  0  0  0
   19.3170   13.5180   14.4470 O   0  0  0  0  0  0  0  0  0  0  0  0
   17.1870   14.0480   15.0730 N   0  0  0  0  0  0  0  0  0  0  0  0
   15.8810   13.7470   15.6670 C   0  0  0  0  0  2  0  0  0  0  0  0
   17.5100   15.4650   14.8770 C   0  0  0  0  0  2  0  0  0  0  0  0
   15.4790   14.8100   16.6840 C   0  0  0  0  0  2  0  0  0  0  0  0
   16.2660   16.3430   14.8080 C   0  0  0  0  0  2  0  0  0  0  0  0
   15.4030   16.2050   16.0600 C   0  0  0  0  0  2  0  0  0  0  0  0
  1  5  1  0
  2  3  2  0
  2  1  1  0
  4  1  1  0
  5  9  1  0
  5 10  2  0
  6 11  1  0
  7  6  1  0
  8  6  2  0
  9  7  2  0
 10  8  1  0
 12  2  1  0
 13 12  1  0
 14 18  1  0
 14 12  1  0
 15 13  1  0
 16 14  1  0
 17 16  1  0
 17 15  2  0
 18 20  1  0
 19 18  2  0
 20 21  1  0
 21 23  1  0
 22 20  1  0
 24 22  1  0
 24 25  1  0
 25 23  1  0
M  RAD  8   7   2   8   2   9   2  10   2  11   2  12   2  13   3  14   2
M  RAD  8  15   2  16   3  17   2  21   3  22   3  23   3  24   3  25   3
M  END
>  <vina_score>  (5) 
-6.5259999999999998

>  <pose_id>  (5) 
5

$$$$
