
     RDKit          3D

 26 28  0  0  1  0  0  0  0  0999 V2000
   17.3610   10.7730   20.6160 N   0  0  0  0  0  0  0  0  0  0  0  0
   17.9110    9.6270   19.8720 C   0  0  0  0  0  3  0  0  0  0  0  0
   18.9120    8.8090   20.7140 C   0  0  0  0  0  2  0  0  0  0  0  0
   20.0330    9.6710   21.2940 C   0  0  0  0  0  2  0  0  0  0  0  0
   19.4820   10.9450   21.9330 C   0  0  0  0  0  2  0  0  0  0  0  0
   18.4590   11.6650   21.0300 C   0  0  0  0  0  3  0  0  0  0  0  0
   19.1370   12.2710   19.7800 C   0  0  0  0  0  2  0  0  0  0  0  0
   18.6500   11.6510   18.4650 C   0  0  0  0  0  3  0  0  0  0  0  0
   18.5590   10.1210   18.5570 C   0  0  0  0  0  2  0  0  0  0  0  0
   16.4560   10.4320   21.7220 C   0  0  0  0  0  2  0  0  0  0  0  0
   15.0370   10.1010   21.2430 C   0  0  0  0  0  2  0  0  0  0  0  0
   14.7030    8.6340   21.4780 C   0  0  0  0  0  1  0  0  0  0  0  0
   19.5140   12.0620   17.3590 N   0  0  0  0  0  0  0  0  0  0  0  0
   19.0400   12.1400   16.0640 C   0  0  0  0  0  0  0  0  0  0  0  0
   17.8710   11.9520   15.7530 O   0  0  0  0  0  0  0  0  0  0  0  0
   20.5110   11.9560   17.4890 H   0  0  0  0  0  0  0  0  0  0  0  0
   20.0550   12.4290   15.0120 C   0  0  0  0  0  0  0  0  0  0  0  0
   21.1980   11.6310   14.9510 C   0  0  0  0  0  3  0  0  0  0  0  0
   19.8860   13.4530   14.0770 C   0  0  0  0  0  3  0  0  0  0  0  0
   22.1750   11.8740   13.9790 C   0  0  0  0  0  3  0  0  0  0  0  0
   20.8670   13.6910   13.1050 C   0  0  0  0  0  3  0  0  0  0  0  0
   22.0350   12.9130   13.0370 C   0  0  0  0  0  0  0  0  0  0  0  0
   23.1310   13.1480   11.9830 C   0  0  2  0  0  0  0  0  0  0  0  0
   23.4260   11.9140   11.1000 C   0  0  0  0  0  1  0  0  0  0  0  0
   24.4530   13.5340   12.6840 C   0  0  0  0  0  1  0  0  0  0  0  0
   22.7050   14.2920   11.0370 C   0  0  0  0  0  1  0  0  0  0  0  0
  1  6  1  0
  1 10  1  0
  2  9  1  0
  2  1  1  0
  2  3  1  0
  3  4  1  0
  4  5  1  0
  6  7  1  0
  6  5  1  0
  8 13  1  0
  8  9  1  0
  8  7  1  0
 11 12  1  0
 11 10  1  0
 13 16  1  0
 14 13  1  0
 15 14  2  0
 17 14  1  0
 18 17  1  0
 19 17  2  0
 20 18  2  0
 21 19  1  0
 22 21  2  0
 22 20  1  0
 23 25  1  1
 23 22  1  0
 24 23  1  0
 26 23  1  0
M  RAD  8   2   2   3   3   4   3   5   3   6   2   7   3   8   2   9   3
M  RAD  8  10   3  11   3  12   2  18   2  19   2  20   2  21   2  24   2
M  RAD  2  25   2  26   2
M  END
>  <vina_score>  (1) 
-6.7930000000000001

>  <pose_id>  (1) 
1

$$$$

     RDKit          3D

 26 28  0  0  1  0  0  0  0  0999 V2000
   22.5080   13.4500   12.0120 N   0  0  0  0  0  0  0  0  0  0  0  0
   23.1080   13.8310   13.3020 C   0  0  0  0  0  3  0  0  0  0  0  0
   24.4770   13.1560   13.5310 C   0  0  0  0  0  2  0  0  0  0  0  0
   24.4120   11.6360   13.3870 C   0  0  0  0  0  2  0  0  0  0  0  0
   23.6520   11.2280   12.1270 C   0  0  0  0  0  2  0  0  0  0  0  0
   22.3190   11.9890   11.9680 C   0  0  0  0  0  3  0  0  0  0  0  0
   21.2930   11.5630   13.0420 C   0  0  0  0  0  2  0  0  0  0  0  0
   20.9010   12.7020   13.9910 C   0  0  0  0  0  3  0  0  0  0  0  0
   22.1240   13.5060   14.4510 C   0  0  0  0  0  2  0  0  0  0  0  0
   23.1890   13.9740   10.8200 C   0  0  0  0  0  2  0  0  0  0  0  0
   22.5350   15.2530   10.2810 C   0  0  0  0  0  2  0  0  0  0  0  0
   21.1030   15.3910   10.7770 C   0  0  0  0  0  1  0  0  0  0  0  0
   20.1560   12.1760   15.1340 N   0  0  0  0  0  0  0  0  0  0  0  0
   19.0440   12.8290   15.6320 C   0  0  0  0  0  0  0  0  0  0  0  0
   18.5570   13.8310   15.1250 O   0  0  0  0  0  0  0  0  0  0  0  0
   20.6450   11.5440   15.7520 H   0  0  0  0  0  0  0  0  0  0  0  0
   18.4640   12.2690   16.8850 C   0  0  0  0  0  0  0  0  0  0  0  0
   19.3280   11.7130   17.8300 C   0  0  0  0  0  3  0  0  0  0  0  0
   17.0930   12.3050   17.1510 C   0  0  0  0  0  3  0  0  0  0  0  0
   18.8200   11.1750   19.0170 C   0  0  0  0  0  3  0  0  0  0  0  0
   16.5900   11.7650   18.3430 C   0  0  0  0  0  3  0  0  0  0  0  0
   17.4390   11.1840   19.2990 C   0  0  0  0  0  0  0  0  0  0  0  0
   16.9190   10.5820   20.6170 C   0  0  2  0  0  0  0  0  0  0  0  0
   15.3820   10.6380   20.7660 C   0  0  0  0  0  1  0  0  0  0  0  0
   17.5220   11.3510   21.8130 C   0  0  0  0  0  1  0  0  0  0  0  0
   17.3310    9.0970   20.7080 C   0  0  0  0  0  1  0  0  0  0  0  0
  1  2  1  0
  2  3  1  0
  2  9  1  0
  4  3  1  0
  5  4  1  0
  6  1  1  0
  6  5  1  0
  6  7  1  0
  7  8  1  0
  8  9  1  0
  8 13  1  0
 10  1  1  0
 11 12  1  0
 11 10  1  0
 13 14  1  0
 13 16  1  0
 14 17  1  0
 15 14  2  0
 17 19  2  0
 17 18  1  0
 18 20  2  0
 19 21  1  0
 20 22  1  0
 21 22  2  0
 22 23  1  0
 23 26  1  1
 23 24  1  0
 23 25  1  0
M  RAD  8   2   2   3   3   4   3   5   3   6   2   7   3   8   2   9   3
M  RAD  8  10   3  11   3  12   2  18   2  19   2  20   2  21   2  24   2
M  RAD  2  25   2  26   2
M  END
>  <vina_score>  (2) 
-6.3739999999999997

>  <pose_id>  (2) 
2

$$$$

     RDKit          3D

 26 28  0  0  1  0  0  0  0  0999 V2000
   17.2190   15.4680   12.9760 N   0  0  0  0  0  0  0  0  0  0  0  0
   16.7310   14.0840   13.1030 C   0  0  0  0  0  3  0  0  0  0  0  0
   15.6090   13.9550   14.1540 C   0  0  0  0  0  2  0  0  0  0  0  0
   16.0130   14.5180   15.5160 C   0  0  0  0  0  2  0  0  0  0  0  0
   16.6650   15.8920   15.3790 C   0  0  0  0  0  2  0  0  0  0  0  0
   17.7420   15.9280   14.2750 C   0  0  0  0  0  3  0  0  0  0  0  0
   18.9800   15.0890   14.6650 C   0  0  0  0  0  2  0  0  0  0  0  0
   19.2180   13.8920   13.7360 C   0  0  0  0  0  3  0  0  0  0  0  0
   17.9140   13.1410   13.4300 C   0  0  0  0  0  2  0  0  0  0  0  0
   16.2740   16.4170   12.3730 C   0  0  0  0  0  2  0  0  0  0  0  0
   15.8540   16.0110   10.9530 C   0  0  0  0  0  2  0  0  0  0  0  0
   17.0350   16.0630    9.9940 C   0  0  0  0  0  1  0  0  0  0  0  0
   20.2190   12.9940   14.3120 N   0  0  0  0  0  0  0  0  0  0  0  0
   21.5500   13.0690   13.9480 C   0  0  0  0  0  0  0  0  0  0  0  0
   22.0030   13.9190   13.1920 O   0  0  0  0  0  0  0  0  0  0  0  0
   19.8870   12.1220   14.7020 H   0  0  0  0  0  0  0  0  0  0  0  0
   22.4380   12.0060   14.4950 C   0  0  0  0  0  0  0  0  0  0  0  0
   21.9860   10.6860   14.4840 C   0  0  0  0  0  3  0  0  0  0  0  0
   23.7120   12.2870   14.9960 C   0  0  0  0  0  3  0  0  0  0  0  0
   22.7920    9.6610   14.9930 C   0  0  0  0  0  3  0  0  0  0  0  0
   24.5150   11.2560   15.5030 C   0  0  0  0  0  3  0  0  0  0  0  0
   24.0720    9.9230   15.5190 C   0  0  0  0  0  0  0  0  0  0  0  0
   24.9290    8.7680   16.0690 C   0  0  2  0  0  0  0  0  0  0  0  0
   24.8900    7.4920   15.1990 C   0  0  0  0  0  1  0  0  0  0  0  0
   24.4300    8.3760   17.4770 C   0  0  0  0  0  1  0  0  0  0  0  0
   26.4040    9.2140   16.1580 C   0  0  0  0  0  1  0  0  0  0  0  0
  1  2  1  0
  1  6  1  0
  2  9  1  0
  2  3  1  0
  3  4  1  0
  5  4  1  0
  6  7  1  0
  6  5  1  0
  8 13  1  0
  8  7  1  0
  9  8  1  0
 10  1  1  0
 11 10  1  0
 12 11  1  0
 13 16  1  0
 14 13  1  0
 14 17  1  0
 15 14  2  0
 17 19  2  0
 18 17  1  0
 18 20  2  0
 19 21  1  0
 20 22  1  0
 21 22  2  0
 22 23  1  0
 23 26  1  1
 23 25  1  0
 24 23  1  0
M  RAD  8   2   2   3   3   4   3   5   3   6   2   7   3   8   2   9   3
M  RAD  8  10   3  11   3  12   2  18   2  19   2  20   2  21   2  24   2
M  RAD  2  25   2  26   2
M  END
>  <vina_score>  (3) 
-6.2990000000000004

>  <pose_id>  (3) 
3

$$$$

     RDKit          3D

 26 28  0  0  1  0  0  0  0  0999 V2000
   23.5850   10.9260   13.3100 N   0  0  0  0  0  0  0  0  0  0  0  0
   23.3660   12.2420   13.9360 C   0  0  0  0  0  3  0  0  0  0  0  0
   24.6290   12.7630   14.6540 C   0  0  0  0  0  2  0  0  0  0  0  0
   25.1830   11.7620   15.6670 C   0  0  0  0  0  2  0  0  0  0  0  0
   25.2670   10.3570   15.0730 C   0  0  0  0  0  2  0  0  0  0  0  0
   23.9720    9.9470   14.3410 C   0  0  0  0  0  3  0  0  0  0  0  0
   22.8030    9.7430   15.3320 C   0  0  0  0  0  2  0  0  0  0  0  0
   21.6510   10.7340   15.1210 C   0  0  0  0  0  3  0  0  0  0  0  0
   22.1630   12.1650   14.9060 C   0  0  0  0  0  2  0  0  0  0  0  0
   24.4880   10.9220   12.1510 C   0  0  0  0  0  2  0  0  0  0  0  0
   23.9630   11.7770   10.9900 C   0  0  0  0  0  2  0  0  0  0  0  0
   24.8710   12.9710   10.7310 C   0  0  0  0  0  1  0  0  0  0  0  0
   20.7180   10.6720   16.2460 N   0  0  0  0  0  0  0  0  0  0  0  0
   19.6790    9.7620   16.2720 C   0  0  0  0  0  0  0  0  0  0  0  0
   19.5030    8.9030   15.4170 O   0  0  0  0  0  0  0  0  0  0  0  0
   20.6310   11.5000   16.8190 H   0  0  0  0  0  0  0  0  0  0  0  0
   18.7170    9.9000   17.4010 C   0  0  0  0  0  0  0  0  0  0  0  0
   17.9510    8.7910   17.7650 C   0  0  0  0  0  3  0  0  0  0  0  0
   18.5750   11.0910   18.1160 C   0  0  0  0  0  3  0  0  0  0  0  0
   17.0350    8.8840   18.8180 C   0  0  0  0  0  3  0  0  0  0  0  0
   17.6570   11.1780   19.1720 C   0  0  0  0  0  3  0  0  0  0  0  0
   16.8620   10.0790   19.5420 C   0  0  0  0  0  0  0  0  0  0  0  0
   15.8440   10.1410   20.6950 C   0  0  2  0  0  0  0  0  0  0  0  0
   15.3720    8.7540   21.1870 C   0  0  0  0  0  1  0  0  0  0  0  0
   14.5890   10.9160   20.2390 C   0  0  0  0  0  1  0  0  0  0  0  0
   16.4750   10.8620   21.9060 C   0  0  0  0  0  1  0  0  0  0  0  0
  1  2  1  0
  1  6  1  0
  2  3  1  0
  2  9  1  0
  3  4  1  0
  5  4  1  0
  6  5  1  0
  6  7  1  0
  8  7  1  0
  8 13  1  0
  9  8  1  0
 10  1  1  0
 11 10  1  0
 12 11  1  0
 13 14  1  0
 13 16  1  0
 14 17  1  0
 15 14  2  0
 17 18  1  0
 17 19  2  0
 18 20  2  0
 19 21  1  0
 20 22  1  0
 21 22  2  0
 22 23  1  0
 23 24  1  1
 23 26  1  0
 25 23  1  0
M  RAD  8   2   2   3   3   4   3   5   3   6   2   7   3   8   2   9   3
M  RAD  8  10   3  11   3  12   2  18   2  19   2  20   2  21   2  24   2
M  RAD  2  25   2  26   2
M  END
>  <vina_score>  (4) 
-6.0460000000000003

>  <pose_id>  (4) 
4

$$$$

     RDKit          3D

 26 28  0  0  1  0  0  0  0  0999 V2000
   16.4310    8.4150   18.6200 N   0  0  0  0  0  0  0  0  0  0  0  0
   17.3190    7.5290   17.8480 C   0  0  0  0  0  3  0  0  0  0  0  0
   18.2490    6.6990   18.7570 C   0  0  0  0  0  2  0  0  0  0  0  0
   19.0530    7.5690   19.7230 C   0  0  0  0  0  2  0  0  0  0  0  0
   18.1650    8.6000   20.4150 C   0  0  0  0  0  2  0  0  0  0  0  0
   17.2420    9.3440   19.4270 C   0  0  0  0  0  3  0  0  0  0  0  0
   18.0480   10.2770   18.4960 C   0  0  0  0  0  2  0  0  0  0  0  0
   17.9650    9.8770   17.0170 C   0  0  0  0  0  3  0  0  0  0  0  0
   18.1300    8.3630   16.8280 C   0  0  0  0  0  2  0  0  0  0  0  0
   15.3900    7.7380   19.4050 C   0  0  0  0  0  2  0  0  0  0  0  0
   14.3620    8.7160   19.9910 C   0  0  0  0  0  2  0  0  0  0  0  0
   14.2920    8.5960   21.5070 C   0  0  0  0  0  1  0  0  0  0  0  0
   18.9540   10.6160   16.2350 N   0  0  0  0  0  0  0  0  0  0  0  0
   18.7640   10.8760   14.8910 C   0  0  0  0  0  0  0  0  0  0  0  0
   17.7450   10.5850   14.2780 O   0  0  0  0  0  0  0  0  0  0  0  0
   19.9020   10.6330   16.5860 H   0  0  0  0  0  0  0  0  0  0  0  0
   19.9090   11.5080   14.1780 C   0  0  0  0  0  0  0  0  0  0  0  0
   19.9430   12.8990   14.0710 C   0  0  0  0  0  3  0  0  0  0  0  0
   20.9560   10.7570   13.6380 C   0  0  0  0  0  3  0  0  0  0  0  0
   21.0010   13.5290   13.4070 C   0  0  0  0  0  3  0  0  0  0  0  0
   22.0140   11.3930   12.9740 C   0  0  0  0  0  3  0  0  0  0  0  0
   22.0580   12.7910   12.8380 C   0  0  0  0  0  0  0  0  0  0  0  0
   23.2040   13.5200   12.1150 C   0  0  2  0  0  0  0  0  0  0  0  0
   24.5050   13.6160   12.9440 C   0  0  0  0  0  1  0  0  0  0  0  0
   22.7720   14.9630   11.7770 C   0  0  0  0  0  1  0  0  0  0  0  0
   23.5520   12.7740   10.8090 C   0  0  0  0  0  1  0  0  0  0  0  0
  1 10  1  0
  1  6  1  0
  2  9  1  0
  2  1  1  0
  2  3  1  0
  3  4  1  0
  4  5  1  0
  6  7  1  0
  6  5  1  0
  8 13  1  0
  8  7  1  0
  9  8  1  0
 10 11  1  0
 11 12  1  0
 13 16  1  0
 14 13  1  0
 15 14  2  0
 17 14  1  0
 18 17  1  0
 19 17  2  0
 20 18  2  0
 21 19  1  0
 22 21  2  0
 22 20  1  0
 23 22  1  0
 23 24  1  1
 25 23  1  0
 26 23  1  0
M  RAD  8   2   2   3   3   4   3   5   3   6   2   7   3   8   2   9   3
M  RAD  8  10   3  11   3  12   2  18   2  19   2  20   2  21   2  24   2
M  RAD  2  25   2  26   2
M  END
>  <vina_score>  (5) 
-5.6630000000000003

>  <pose_id>  (5) 
5

$$$$
