
     RDKit          3D

 21 23  0  0  1  0  0  0  0  0999 V2000
   20.2180   15.3190   12.9530 N   0  0  0  0  0  0  0  0  0  0  0  0
   20.2790   15.8370   13.8260 H   0  0  0  0  0  0  0  0  0  0  0  0
   21.3770   14.5630   12.7370 C   0  0  0  0  0  0  0  0  0  0  0  0
   23.7900   13.1140   12.4910 C   0  0  0  0  0  3  0  0  0  0  0  0
   23.0670   13.0700   13.6780 C   0  0  0  0  0  3  0  0  0  0  0  0
   23.3320   13.9000   11.4390 C   0  0  0  0  0  3  0  0  0  0  0  0
   21.8820   13.8000   13.8010 C   0  0  0  0  0  3  0  0  0  0  0  0
   22.1440   14.6280   11.5670 C   0  0  0  0  0  3  0  0  0  0  0  0
   18.8870   14.7220   12.7710 C   0  0  0  0  0  3  0  0  0  0  0  0
   18.1480   15.2690   11.5490 C   0  0  0  0  0  0  0  0  0  0  0  0
   18.8180   15.7900   10.4300 C   0  0  0  0  0  3  0  0  0  0  0  0
   16.7410   15.2740   11.5430 C   0  0  0  0  0  3  0  0  0  0  0  0
   18.1060   16.2910    9.3370 C   0  0  0  0  0  3  0  0  0  0  0  0
   16.0300   15.7770   10.4520 C   0  0  0  0  0  3  0  0  0  0  0  0
   16.7130   16.2850    9.3490 C   0  0  0  0  0  3  0  0  0  0  0  0
   18.1030   14.9290   14.0650 C   0  0  0  0  0  0  0  0  0  0  0  0
   17.8090   16.2250   14.5100 C   0  0  0  0  0  3  0  0  0  0  0  0
   17.6150   13.8500   14.8130 C   0  0  0  0  0  3  0  0  0  0  0  0
   17.0710   16.3800   15.6730 C   0  0  0  0  0  3  0  0  0  0  0  0
   16.8880   14.1080   15.9640 C   0  0  0  0  0  3  0  0  0  0  0  0
   16.6050   15.3510   16.4110 N   0  0  0  0  0  0  0  0  0  0  0  0
  1  2  1  0
  3  1  1  0
  3  7  2  0
  4  5  2  0
  5  7  1  0
  6  8  2  0
  6  4  1  0
  8  3  1  0
  9  1  1  0
  9 16  1  0
 10  9  1  0
 11 10  2  0
 12 10  1  0
 13 15  2  0
 13 11  1  0
 14 12  2  0
 15 14  1  0
 16 17  1  0
 16 18  2  0
 17 19  2  0
 18 20  1  0
 19 21  1  0
 20 21  2  0
M  RAD  8   4   2   5   2   6   2   7   2   8   2   9   2  11   2  12   2
M  RAD  7  13   2  14   2  15   2  17   2  18   2  19   2  20   2
M  END
>  <vina_score>  (1) 
-6.8710000000000004

>  <pose_id>  (1) 
1

$$$$

     RDKit          3D

 21 23  0  0  1  0  0  0  0  0999 V2000
   17.4460   13.8950   13.5760 N   0  0  0  0  0  0  0  0  0  0  0  0
   17.4280   12.8790   13.6090 H   0  0  0  0  0  0  0  0  0  0  0  0
   16.7040   14.4430   14.6290 C   0  0  0  0  0  0  0  0  0  0  0  0
   15.0900   15.3660   16.7570 C   0  0  0  0  0  3  0  0  0  0  0  0
   15.6590   14.0980   16.8120 C   0  0  0  0  0  3  0  0  0  0  0  0
   15.2970   16.1620   15.6360 C   0  0  0  0  0  3  0  0  0  0  0  0
   16.4440   13.6400   15.7500 C   0  0  0  0  0  3  0  0  0  0  0  0
   16.0850   15.6990   14.5770 C   0  0  0  0  0  3  0  0  0  0  0  0
   18.7890   14.4020   13.2610 C   0  0  0  0  0  3  0  0  0  0  0  0
   18.8820   15.0260   11.8680 C   0  0  0  0  0  0  0  0  0  0  0  0
   20.1050   15.2160   11.2030 C   0  0  0  0  0  3  0  0  0  0  0  0
   17.7030   15.4510   11.2260 C   0  0  0  0  0  3  0  0  0  0  0  0
   20.1470   15.8010    9.9350 C   0  0  0  0  0  3  0  0  0  0  0  0
   17.7480   16.0370    9.9600 C   0  0  0  0  0  3  0  0  0  0  0  0
   18.9700   16.2120    9.3150 C   0  0  0  0  0  3  0  0  0  0  0  0
   19.7770   13.2520   13.4490 C   0  0  0  0  0  0  0  0  0  0  0  0
   21.0200   13.4830   14.0520 C   0  0  0  0  0  3  0  0  0  0  0  0
   19.4620   11.9390   13.0750 C   0  0  0  0  0  3  0  0  0  0  0  0
   21.8830   12.4150   14.2340 C   0  0  0  0  0  3  0  0  0  0  0  0
   20.3930   10.9390   13.2960 C   0  0  0  0  0  3  0  0  0  0  0  0
   21.5990   11.1470   13.8680 N   0  0  0  0  0  0  0  0  0  0  0  0
  1  2  1  0
  1  3  1  0
  3  7  2  0
  4  5  2  0
  6  4  1  0
  7  5  1  0
  8  3  1  0
  8  6  2  0
  9 16  1  0
  9  1  1  0
 10  9  1  0
 11 10  2  0
 12 10  1  0
 13 11  1  0
 14 12  2  0
 15 13  2  0
 15 14  1  0
 16 17  1  0
 17 19  2  0
 18 20  1  0
 18 16  2  0
 20 21  2  0
 21 19  1  0
M  RAD  8   4   2   5   2   6   2   7   2   8   2   9   2  11   2  12   2
M  RAD  7  13   2  14   2  15   2  17   2  18   2  19   2  20   2
M  END
>  <vina_score>  (2) 
-6.399

>  <pose_id>  (2) 
2

$$$$

     RDKit          3D

 21 23  0  0  1  0  0  0  0  0999 V2000
   18.3400   13.3940   13.6820 N   0  0  0  0  0  0  0  0  0  0  0  0
   18.6500   13.7760   14.5720 H   0  0  0  0  0  0  0  0  0  0  0  0
   18.4110   11.9950   13.6850 C   0  0  0  0  0  0  0  0  0  0  0  0
   18.7210    9.1900   13.5520 C   0  0  0  0  0  3  0  0  0  0  0  0
   19.8270   10.0050   13.7660 C   0  0  0  0  0  3  0  0  0  0  0  0
   17.4680    9.7680   13.3740 C   0  0  0  0  0  3  0  0  0  0  0  0
   19.6710   11.3930   13.8160 C   0  0  0  0  0  3  0  0  0  0  0  0
   17.3190   11.1580   13.4260 C   0  0  0  0  0  3  0  0  0  0  0  0
   17.1400   14.0830   13.1870 C   0  0  0  0  0  3  0  0  0  0  0  0
   17.3930   14.8790   11.9050 C   0  0  0  0  0  0  0  0  0  0  0  0
   16.3520   15.3940   11.1160 C   0  0  0  0  0  3  0  0  0  0  0  0
   18.7180   15.0900   11.4780 C   0  0  0  0  0  3  0  0  0  0  0  0
   16.6250   16.1050    9.9450 C   0  0  0  0  0  3  0  0  0  0  0  0
   18.9890   15.7990   10.3070 C   0  0  0  0  0  3  0  0  0  0  0  0
   17.9420   16.3070    9.5410 C   0  0  0  0  0  3  0  0  0  0  0  0
   16.6060   14.9600   14.3180 C   0  0  0  0  0  0  0  0  0  0  0  0
   15.2430   14.9410   14.6390 C   0  0  0  0  0  3  0  0  0  0  0  0
   17.4530   15.7630   15.0920 C   0  0  0  0  0  3  0  0  0  0  0  0
   14.7930   15.7270   15.6880 C   0  0  0  0  0  3  0  0  0  0  0  0
   16.9080   16.5150   16.1200 C   0  0  0  0  0  3  0  0  0  0  0  0
   15.5940   16.5150   16.4350 N   0  0  0  0  0  0  0  0  0  0  0  0
  1  3  1  0
  1  2  1  0
  3  7  2  0
  4  5  2  0
  5  7  1  0
  6  8  2  0
  6  4  1  0
  8  3  1  0
  9  1  1  0
  9 16  1  0
 10  9  1  0
 11 10  2  0
 12 10  1  0
 13 11  1  0
 14 12  2  0
 15 13  2  0
 15 14  1  0
 16 17  1  0
 16 18  2  0
 17 19  2  0
 18 20  1  0
 19 21  1  0
 20 21  2  0
M  RAD  8   4   2   5   2   6   2   7   2   8   2   9   2  11   2  12   2
M  RAD  7  13   2  14   2  15   2  17   2  18   2  19   2  20   2
M  END
>  <vina_score>  (3) 
-6.3879999999999999

>  <pose_id>  (3) 
3

$$$$

     RDKit          3D

 21 23  0  0  1  0  0  0  0  0999 V2000
   19.1210   13.7120   12.6880 N   0  0  0  0  0  0  0  0  0  0  0  0
   18.7600   13.3000   11.8320 H   0  0  0  0  0  0  0  0  0  0  0  0
   20.5110   13.5660   12.7670 C   0  0  0  0  0  0  0  0  0  0  0  0
   23.3300   13.3740   12.7370 C   0  0  0  0  0  3  0  0  0  0  0  0
   22.7110   14.5930   12.4840 C   0  0  0  0  0  3  0  0  0  0  0  0
   22.5520   12.2460   12.9750 C   0  0  0  0  0  3  0  0  0  0  0  0
   21.3160   14.6800   12.4850 C   0  0  0  0  0  3  0  0  0  0  0  0
   21.1560   12.3400   12.9760 C   0  0  0  0  0  3  0  0  0  0  0  0
   18.4850   15.0060   12.9740 C   0  0  0  0  0  3  0  0  0  0  0  0
   17.5520   14.9590   14.1860 C   0  0  0  0  0  0  0  0  0  0  0  0
   17.2150   16.1040   14.9260 C   0  0  0  0  0  3  0  0  0  0  0  0
   17.0220   13.7220   14.5960 C   0  0  0  0  0  3  0  0  0  0  0  0
   16.3680   16.0170   16.0340 C   0  0  0  0  0  3  0  0  0  0  0  0
   16.1770   13.6370   15.7050 C   0  0  0  0  0  3  0  0  0  0  0  0
   15.8500   14.7840   16.4230 C   0  0  0  0  0  3  0  0  0  0  0  0
   17.7680   15.4640   11.7060 C   0  0  0  0  0  0  0  0  0  0  0  0
   18.5040   15.8100   10.5670 C   0  0  0  0  0  3  0  0  0  0  0  0
   16.3700   15.5060   11.6240 C   0  0  0  0  0  3  0  0  0  0  0  0
   17.8240   16.1950    9.4230 C   0  0  0  0  0  3  0  0  0  0  0  0
   15.7820   15.9060   10.4350 C   0  0  0  0  0  3  0  0  0  0  0  0
   16.4780   16.2520    9.3320 N   0  0  0  0  0  0  0  0  0  0  0  0
  1  3  1  0
  2  1  1  0
  3  8  1  0
  4  6  1  0
  5  7  1  0
  5  4  2  0
  6  8  2  0
  7  3  2  0
  9  1  1  0
  9 10  1  0
 10 12  1  0
 10 11  2  0
 11 13  1  0
 12 14  2  0
 13 15  2  0
 14 15  1  0
 16  9  1  0
 17 16  1  0
 18 16  2  0
 19 17  2  0
 20 18  1  0
 21 19  1  0
 21 20  2  0
M  RAD  8   4   2   5   2   6   2   7   2   8   2   9   2  11   2  12   2
M  RAD  7  13   2  14   2  15   2  17   2  18   2  19   2  20   2
M  END
>  <vina_score>  (4) 
-6.2670000000000003

>  <pose_id>  (4) 
4

$$$$

     RDKit          3D

 21 23  0  0  1  0  0  0  0  0999 V2000
   18.4300   13.9190   13.0450 N   0  0  0  0  0  0  0  0  0  0  0  0
   18.3560   12.9070   13.1110 H   0  0  0  0  0  0  0  0  0  0  0  0
   17.4820   14.5450   13.8650 C   0  0  0  0  0  0  0  0  0  0  0  0
   15.4370   15.8140   15.3450 C   0  0  0  0  0  3  0  0  0  0  0  0
   15.1450   14.7040   14.5600 C   0  0  0  0  0  3  0  0  0  0  0  0
   16.7360   16.3110   15.3720 C   0  0  0  0  0  3  0  0  0  0  0  0
   16.1560   14.0890   13.8170 C   0  0  0  0  0  3  0  0  0  0  0  0
   17.7450   15.6900   14.6280 C   0  0  0  0  0  3  0  0  0  0  0  0
   19.8320   14.3590   13.0480 C   0  0  0  0  0  3  0  0  0  0  0  0
   20.2560   15.0120   11.7310 C   0  0  0  0  0  0  0  0  0  0  0  0
   19.3300   15.5140   10.8020 C   0  0  0  0  0  3  0  0  0  0  0  0
   21.6260   15.1000   11.4180 C   0  0  0  0  0  3  0  0  0  0  0  0
   19.7580   16.0920    9.6040 C   0  0  0  0  0  3  0  0  0  0  0  0
   22.0510   15.6770   10.2210 C   0  0  0  0  0  3  0  0  0  0  0  0
   21.1180   16.1740    9.3140 C   0  0  0  0  0  3  0  0  0  0  0  0
   20.6990   13.1540   13.4030 C   0  0  0  0  0  0  0  0  0  0  0  0
   20.3220   11.8690   12.9910 C   0  0  0  0  0  3  0  0  0  0  0  0
   21.9060   13.2920   14.1010 C   0  0  0  0  0  3  0  0  0  0  0  0
   21.1440   10.7990   13.3050 C   0  0  0  0  0  3  0  0  0  0  0  0
   22.6580   12.1610   14.3690 C   0  0  0  0  0  3  0  0  0  0  0  0
   22.3030   10.9150   13.9870 N   0  0  0  0  0  0  0  0  0  0  0  0
  1  2  1  0
  1  3  1  0
  3  8  1  0
  4  6  1  0
  5  4  2  0
  7  3  2  0
  7  5  1  0
  8  6  2  0
  9  1  1  0
  9 16  1  0
 10  9  1  0
 11 10  2  0
 12 10  1  0
 13 11  1  0
 14 12  2  0
 15 13  2  0
 15 14  1  0
 16 18  2  0
 17 19  2  0
 17 16  1  0
 18 20  1  0
 19 21  1  0
 21 20  2  0
M  RAD  8   4   2   5   2   6   2   7   2   8   2   9   2  11   2  12   2
M  RAD  7  13   2  14   2  15   2  17   2  18   2  19   2  20   2
M  END
>  <vina_score>  (5) 
-6.1260000000000003

>  <pose_id>  (5) 
5

$$$$
