
     RDKit          3D

 23 25  0  0  0  0  0  0  0  0999 V2000
   20.0800   14.3960   12.6800 N   0  0  0  0  0  0  0  0  0  0  0  0
   19.8800   14.9110   13.5340 H   0  0  0  0  0  0  0  0  0  0  0  0
   19.4750   14.9920   11.5680 C   0  0  0  0  0  0  0  0  0  0  0  0
   17.4010   15.7810   10.5180 C   0  0  0  0  0  0  0  0  0  0  0  0
   18.1370   16.2790    9.4420 C   0  0  0  0  0  3  0  0  0  0  0  0
   18.0790   15.1440   11.5700 C   0  0  0  0  0  3  0  0  0  0  0  0
   19.5260   16.1780    9.4430 C   0  0  0  0  0  3  0  0  0  0  0  0
   20.1870   15.5540   10.5050 C   0  0  0  0  0  3  0  0  0  0  0  0
   15.9050   15.8740   10.5280 C   0  0  0  0  0  1  0  0  0  0  0  0
   20.0290   12.9400   12.8640 C   0  0  0  0  0  2  0  0  0  0  0  0
   19.8860   12.5180   14.3180 C   0  0  0  0  0  0  0  0  0  0  0  0
   20.8850   11.9560   14.9500 N   0  0  0  0  0  0  0  0  0  0  0  0
   18.7460   12.6280   15.0510 N   0  0  0  0  0  0  0  0  0  0  0  0
   20.3760   11.6380   16.1700 N   0  0  0  0  0  0  0  0  0  0  0  0
   19.0470   12.0340   16.2650 C   0  0  0  0  0  0  0  0  0  0  0  0
   18.1660   11.8340   17.6580 S   0  0  0  0  0  0  0  0  0  0  0  0
   20.9260   11.1850   16.8910 H   0  0  0  0  0  0  0  0  0  0  0  0
   17.5240   13.2210   14.6710 C   0  0  0  0  0  0  0  0  0  0  0  0
   16.6180   12.5320   13.8550 C   0  0  0  0  0  3  0  0  0  0  0  0
   17.1980   14.5190   15.0900 C   0  0  0  0  0  3  0  0  0  0  0  0
   15.4210   13.1310   13.4530 C   0  0  0  0  0  3  0  0  0  0  0  0
   16.0000   15.1170   14.6890 C   0  0  0  0  0  3  0  0  0  0  0  0
   15.1130   14.4240   13.8700 C   0  0  0  0  0  3  0  0  0  0  0  0
  1 10  1  0
  1  2  1  0
  3  6  1  0
  3  1  1  0
  4  9  1  0
  4  6  2  0
  5  7  2  0
  5  4  1  0
  7  8  1  0
  8  3  2  0
 10 11  1  0
 11 12  2  0
 11 13  1  0
 12 14  1  0
 13 15  1  0
 14 15  1  0
 14 17  1  0
 15 16  2  0
 18 13  1  0
 18 20  1  0
 19 18  2  0
 21 19  1  0
 21 23  2  0
 22 20  2  0
 23 22  1  0
M  END
>  <vina_score>  (1) 
-6.5519999999999996

>  <pose_id>  (1) 
1

$$$$

     RDKit          3D

 23 25  0  0  0  0  0  0  0  0999 V2000
   21.2210   15.5420   11.7730 N   0  0  0  0  0  0  0  0  0  0  0  0
   21.1700   16.3180   11.1170 H   0  0  0  0  0  0  0  0  0  0  0  0
   22.3480   14.7480   11.5400 C   0  0  0  0  0  0  0  0  0  0  0  0
   23.9650   13.1360   12.4450 C   0  0  0  0  0  0  0  0  0  0  0  0
   24.5510   13.0180   11.1830 C   0  0  0  0  0  3  0  0  0  0  0  0
   22.8690   13.9990   12.6080 C   0  0  0  0  0  3  0  0  0  0  0  0
   24.0220   13.7190   10.1030 C   0  0  0  0  0  3  0  0  0  0  0  0
   22.9210   14.5620   10.2790 C   0  0  0  0  0  3  0  0  0  0  0  0
   24.5270   12.3960   13.6210 C   0  0  0  0  0  1  0  0  0  0  0  0
   19.9150   14.9220   12.0300 C   0  0  0  0  0  2  0  0  0  0  0  0
   18.8230   15.3940   11.0820 C   0  0  0  0  0  0  0  0  0  0  0  0
   19.1160   15.7640    9.8600 N   0  0  0  0  0  0  0  0  0  0  0  0
   17.5100   15.5230   11.4100 N   0  0  0  0  0  0  0  0  0  0  0  0
   17.9340   16.1990    9.3480 N   0  0  0  0  0  0  0  0  0  0  0  0
   16.9160   16.0720   10.2860 C   0  0  0  0  0  0  0  0  0  0  0  0
   15.3420   16.4680    9.9370 S   0  0  0  0  0  0  0  0  0  0  0  0
   17.8450   16.5520    8.4020 H   0  0  0  0  0  0  0  0  0  0  0  0
   16.8800   15.1720   12.6210 C   0  0  0  0  0  0  0  0  0  0  0  0
   16.3300   13.8960   12.7990 C   0  0  0  0  0  3  0  0  0  0  0  0
   16.7780   16.0970   13.6690 C   0  0  0  0  0  3  0  0  0  0  0  0
   15.6790   13.5580   13.9870 C   0  0  0  0  0  3  0  0  0  0  0  0
   16.1290   15.7590   14.8590 C   0  0  0  0  0  3  0  0  0  0  0  0
   15.5770   14.4910   15.0170 C   0  0  0  0  0  3  0  0  0  0  0  0
  1 10  1  0
  2  1  1  0
  3  1  1  0
  3  6  1  0
  4  6  2  0
  4  9  1  0
  5  4  1  0
  7  8  1  0
  7  5  2  0
  8  3  2  0
 11 13  1  0
 11 10  1  0
 12 11  2  0
 13 18  1  0
 14 12  1  0
 14 15  1  0
 15 13  1  0
 16 15  2  0
 17 14  1  0
 18 19  2  0
 18 20  1  0
 19 21  1  0
 20 22  2  0
 21 23  2  0
 22 23  1  0
M  END
>  <vina_score>  (2) 
-6.5229999999999997

>  <pose_id>  (2) 
2

$$$$

     RDKit          3D

 23 25  0  0  0  0  0  0  0  0999 V2000
   19.9680   13.9910   13.3890 N   0  0  0  0  0  0  0  0  0  0  0  0
   19.3940   14.5050   14.0530 H   0  0  0  0  0  0  0  0  0  0  0  0
   20.0220   14.6380   12.1500 C   0  0  0  0  0  0  0  0  0  0  0  0
   18.7890   15.7550   10.3460 C   0  0  0  0  0  0  0  0  0  0  0  0
   19.9940   16.0530    9.7080 C   0  0  0  0  0  3  0  0  0  0  0  0
   18.8170   15.0520   11.5610 C   0  0  0  0  0  3  0  0  0  0  0  0
   21.2020   15.6880   10.2980 C   0  0  0  0  0  3  0  0  0  0  0  0
   21.2130   15.0020   11.5160 C   0  0  0  0  0  3  0  0  0  0  0  0
   17.4800   16.1330    9.7190 C   0  0  0  0  0  1  0  0  0  0  0  0
   19.7670   12.5390   13.4630 C   0  0  0  0  0  2  0  0  0  0  0  0
   20.6240   11.8620   14.5220 C   0  0  0  0  0  0  0  0  0  0  0  0
   20.0830   11.3990   15.6210 N   0  0  0  0  0  0  0  0  0  0  0  0
   21.9750   11.7250   14.4580 N   0  0  0  0  0  0  0  0  0  0  0  0
   21.1380   10.9560   16.3550 N   0  0  0  0  0  0  0  0  0  0  0  0
   22.3300   11.1510   15.6670 C   0  0  0  0  0  0  0  0  0  0  0  0
   23.7920   10.6570   16.2810 S   0  0  0  0  0  0  0  0  0  0  0  0
   21.0290   10.5370   17.2710 H   0  0  0  0  0  0  0  0  0  0  0  0
   22.8340   12.0800   13.3980 C   0  0  0  0  0  0  0  0  0  0  0  0
   23.6210   13.2370   13.4720 C   0  0  0  0  0  3  0  0  0  0  0  0
   22.9060   11.2930   12.2410 C   0  0  0  0  0  3  0  0  0  0  0  0
   24.4490   13.6050   12.4090 C   0  0  0  0  0  3  0  0  0  0  0  0
   23.7360   11.6610   11.1780 C   0  0  0  0  0  3  0  0  0  0  0  0
   24.5050   12.8180   11.2610 C   0  0  0  0  0  3  0  0  0  0  0  0
  1 10  1  0
  1  2  1  0
  3  1  1  0
  4  6  2  0
  5  7  2  0
  5  4  1  0
  6  3  1  0
  7  8  1  0
  8  3  2  0
  9  4  1  0
 10 11  1  0
 11 12  2  0
 12 14  1  0
 13 11  1  0
 13 15  1  0
 14 17  1  0
 15 16  2  0
 15 14  1  0
 18 19  1  0
 18 13  1  0
 20 18  2  0
 21 19  2  0
 22 23  2  0
 22 20  1  0
 23 21  1  0
M  END
>  <vina_score>  (3) 
-6.3789999999999996

>  <pose_id>  (3) 
3

$$$$

     RDKit          3D

 23 25  0  0  0  0  0  0  0  0999 V2000
   18.9580   14.3440   12.8860 N   0  0  0  0  0  0  0  0  0  0  0  0
   18.5220   13.4460   12.6860 H   0  0  0  0  0  0  0  0  0  0  0  0
   19.3090   15.0160   11.7110 C   0  0  0  0  0  0  0  0  0  0  0  0
   21.1000   15.7150   10.1850 C   0  0  0  0  0  0  0  0  0  0  0  0
   20.1490   16.2460    9.3130 C   0  0  0  0  0  3  0  0  0  0  0  0
   20.6690   15.1050   11.3740 C   0  0  0  0  0  3  0  0  0  0  0  0
   18.7940   16.1310    9.6090 C   0  0  0  0  0  3  0  0  0  0  0  0
   18.3790   15.5060   10.7890 C   0  0  0  0  0  3  0  0  0  0  0  0
   22.5640   15.8390    9.8860 C   0  0  0  0  0  1  0  0  0  0  0  0
   19.8900   14.2880   14.0190 C   0  0  0  0  0  2  0  0  0  0  0  0
   20.1490   12.8760   14.5210 C   0  0  0  0  0  0  0  0  0  0  0  0
   19.2990   12.2880   15.3250 N   0  0  0  0  0  0  0  0  0  0  0  0
   21.2590   12.1420   14.2410 N   0  0  0  0  0  0  0  0  0  0  0  0
   19.8900   11.1020   15.6310 N   0  0  0  0  0  0  0  0  0  0  0  0
   21.1130   10.9810   14.9820 C   0  0  0  0  0  0  0  0  0  0  0  0
   22.0470    9.6150   15.1120 S   0  0  0  0  0  0  0  0  0  0  0  0
   19.4600   10.4200   16.2450 H   0  0  0  0  0  0  0  0  0  0  0  0
   22.3260   12.4770   13.3830 C   0  0  0  0  0  0  0  0  0  0  0  0
   22.3410   12.0360   12.0530 C   0  0  0  0  0  3  0  0  0  0  0  0
   23.4030   13.2450   13.8460 C   0  0  0  0  0  3  0  0  0  0  0  0
   23.4130   12.3410   11.2110 C   0  0  0  0  0  3  0  0  0  0  0  0
   24.4750   13.5530   13.0030 C   0  0  0  0  0  3  0  0  0  0  0  0
   24.4810   13.0990   11.6870 C   0  0  0  0  0  3  0  0  0  0  0  0
  1 10  1  0
  2  1  1  0
  3  1  1  0
  4  6  2  0
  5  7  2  0
  5  4  1  0
  6  3  1  0
  7  8  1  0
  8  3  2  0
  9  4  1  0
 10 11  1  0
 11 12  2  0
 12 14  1  0
 13 11  1  0
 13 15  1  0
 14 17  1  0
 15 16  2  0
 15 14  1  0
 18 20  1  0
 18 13  1  0
 19 18  2  0
 21 23  2  0
 21 19  1  0
 22 20  2  0
 23 22  1  0
M  END
>  <vina_score>  (4) 
-6.2919999999999998

>  <pose_id>  (4) 
4

$$$$

     RDKit          3D

 23 25  0  0  0  0  0  0  0  0999 V2000
   19.5710    7.8550   20.5600 N   0  0  0  0  0  0  0  0  0  0  0  0
   19.5180    7.1770   21.3170 H   0  0  0  0  0  0  0  0  0  0  0  0
   19.0310    9.0890   20.9380 C   0  0  0  0  0  0  0  0  0  0  0  0
   17.0450   10.5270   21.0560 C   0  0  0  0  0  0  0  0  0  0  0  0
   17.7840   11.4890   21.7460 C   0  0  0  0  0  3  0  0  0  0  0  0
   17.6770    9.3370   20.6610 C   0  0  0  0  0  3  0  0  0  0  0  0
   19.1160   11.2440   22.0670 C   0  0  0  0  0  3  0  0  0  0  0  0
   19.7270   10.0470   21.6810 C   0  0  0  0  0  3  0  0  0  0  0  0
   15.6120   10.7800   20.6940 C   0  0  0  0  0  1  0  0  0  0  0  0
   19.2560    7.2740   19.2490 C   0  0  0  0  0  2  0  0  0  0  0  0
   20.3150    7.5520   18.1930 C   0  0  0  0  0  0  0  0  0  0  0  0
   21.2210    6.6520   17.9050 N   0  0  0  0  0  0  0  0  0  0  0  0
   20.4510    8.7240   17.5180 N   0  0  0  0  0  0  0  0  0  0  0  0
   22.0350    7.2680   17.0070 N   0  0  0  0  0  0  0  0  0  0  0  0
   21.5910    8.5600   16.7490 C   0  0  0  0  0  0  0  0  0  0  0  0
   22.3460    9.5470   15.6480 S   0  0  0  0  0  0  0  0  0  0  0  0
   22.8410    6.8110   16.5960 H   0  0  0  0  0  0  0  0  0  0  0  0
   19.6170    9.8590   17.5740 C   0  0  0  0  0  0  0  0  0  0  0  0
   20.0200   11.0100   18.2650 C   0  0  0  0  0  3  0  0  0  0  0  0
   18.3600    9.8560   16.9520 C   0  0  0  0  0  3  0  0  0  0  0  0
   19.1800   12.1230   18.3480 C   0  0  0  0  0  3  0  0  0  0  0  0
   17.5220   10.9710   17.0330 C   0  0  0  0  0  3  0  0  0  0  0  0
   17.9310   12.1030   17.7320 C   0  0  0  0  0  3  0  0  0  0  0  0
  1  3  1  0
  1  2  1  0
  3  8  1  0
  4  5  2  0
  5  7  1  0
  6  3  2  0
  6  4  1  0
  8  7  2  0
  9  4  1  0
 10  1  1  0
 11 10  1  0
 12 11  2  0
 13 18  1  0
 13 11  1  0
 14 12  1  0
 15 14  1  0
 15 13  1  0
 16 15  2  0
 17 14  1  0
 18 19  1  0
 19 21  2  0
 20 22  1  0
 20 18  2  0
 22 23  2  0
 23 21  1  0
M  END
>  <vina_score>  (5) 
-6.0590000000000002

>  <pose_id>  (5) 
5

$$$$
