
     RDKit          3D

 24 24  0  0  0  0  0  0  0  0999 V2000
   23.2930    9.6630   17.1790 N   0  0  0  0  0  0  0  0  0  0  0  0
   23.8530    8.3610   16.7900 C   0  0  0  0  0  2  0  0  0  0  0  0
   24.3570    7.5540   17.9810 C   0  0  0  0  0  1  0  0  0  0  0  0
   23.0420    9.7730   18.6260 C   0  0  0  0  0  2  0  0  0  0  0  0
   21.5850   10.2140   18.8690 C   0  0  0  0  0  0  0  0  0  0  0  0
   20.9310   10.7600   17.9840 O   0  0  0  0  0  0  0  0  0  0  0  0
   21.1440    9.9480   20.1570 N   0  0  0  0  0  0  0  0  0  0  0  0
   21.8320    9.6150   20.8210 H   0  0  0  0  0  0  0  0  0  0  0  0
   19.8460   10.1610   20.6700 C   0  0  0  0  0  0  0  0  0  0  0  0
   18.8550    9.2340   20.3120 C   0  0  0  0  0  3  0  0  0  0  0  0
   19.4940   11.2420   21.4740 C   0  0  0  0  0  3  0  0  0  0  0  0
   17.5380    9.3810   20.7620 C   0  0  0  0  0  3  0  0  0  0  0  0
   18.1790   11.3870   21.9110 C   0  0  0  0  0  0  0  0  0  0  0  0
   17.1890   10.4610   21.5750 C   0  0  0  0  0  0  0  0  0  0  0  0
   17.8610   12.4580   22.6550 F   0  0  0  0  0  0  0  0  0  0  0  0
   15.7770   10.6750   22.0280 C   0  0  0  0  0  1  0  0  0  0  0  0
   24.1670   10.7600   16.6990 C   0  0  0  0  0  2  0  0  0  0  0  0
   23.6570   11.2620   15.3440 C   0  0  0  0  0  0  0  0  0  0  0  0
   24.3260   11.1840   14.3210 O   0  0  0  0  0  0  0  0  0  0  0  0
   22.4080   11.8510   15.4310 N   0  0  0  0  0  0  0  0  0  0  0  0
   21.8930   11.5880   16.2710 H   0  0  0  0  0  0  0  0  0  0  0  0
   21.6530   12.2750   14.2640 C   0  0  0  0  0  3  0  0  0  0  0  0
   20.1590   12.0890   14.5220 C   0  0  0  0  0  1  0  0  0  0  0  0
   21.9370   13.7340   13.9020 C   0  0  0  0  0  1  0  0  0  0  0  0
  1  4  1  0
  2  1  1  0
  2  3  1  0
  4  5  1  0
  5  7  1  0
  6  5  2  0
  7  9  1  0
  7  8  1  0
  9 11  2  0
 10  9  1  0
 10 12  2  0
 11 13  1  0
 12 14  1  0
 13 15  1  0
 14 13  2  0
 14 16  1  0
 17  1  1  0
 18 20  1  0
 18 17  1  0
 19 18  2  0
 20 21  1  0
 22 23  1  0
 22 20  1  0
 24 22  1  0
M  RAD  8   2   3   3   2   4   3  10   2  11   2  12   2  16   2  17   3
M  RAD  3  22   2  23   2  24   2
M  END
>  <vina_score>  (1) 
-5.8490000000000002

>  <pose_id>  (1) 
1

$$$$

     RDKit          3D

 24 24  0  0  0  0  0  0  0  0999 V2000
   18.9530   11.9320   14.3600 N   0  0  0  0  0  0  0  0  0  0  0  0
   18.7990   10.7360   13.5200 C   0  0  0  0  0  2  0  0  0  0  0  0
   17.3500   10.2750   13.4040 C   0  0  0  0  0  1  0  0  0  0  0  0
   19.8000   11.7010   15.5420 C   0  0  0  0  0  2  0  0  0  0  0  0
   19.0280   12.0890   16.8190 C   0  0  0  0  0  0  0  0  0  0  0  0
   18.3120   13.0870   16.8490 O   0  0  0  0  0  0  0  0  0  0  0  0
   19.2560   11.2210   17.8760 N   0  0  0  0  0  0  0  0  0  0  0  0
   19.9730   10.5170   17.7490 H   0  0  0  0  0  0  0  0  0  0  0  0
   18.6460   11.2570   19.1490 C   0  0  0  0  0  0  0  0  0  0  0  0
   19.4540   11.6190   20.2370 C   0  0  0  0  0  3  0  0  0  0  0  0
   17.3130   10.9280   19.3830 C   0  0  0  0  0  3  0  0  0  0  0  0
   18.9330   11.6620   21.5360 C   0  0  0  0  0  3  0  0  0  0  0  0
   16.8040   10.9650   20.6800 C   0  0  0  0  0  0  0  0  0  0  0  0
   17.5950   11.3390   21.7680 C   0  0  0  0  0  0  0  0  0  0  0  0
   15.5260   10.6070   20.8800 F   0  0  0  0  0  0  0  0  0  0  0  0
   17.0220   11.3250   23.1530 C   0  0  0  0  0  1  0  0  0  0  0  0
   19.4570   13.0650   13.5470 C   0  0  0  0  0  2  0  0  0  0  0  0
   18.2750   13.9130   13.0660 C   0  0  0  0  0  0  0  0  0  0  0  0
   18.2270   14.3920   11.9400 O   0  0  0  0  0  0  0  0  0  0  0  0
   17.3260   14.1130   14.0520 N   0  0  0  0  0  0  0  0  0  0  0  0
   17.3830   13.4350   14.8130 H   0  0  0  0  0  0  0  0  0  0  0  0
   16.0500   14.7600   13.8010 C   0  0  0  0  0  3  0  0  0  0  0  0
   15.0880   13.7690   13.1500 C   0  0  0  0  0  1  0  0  0  0  0  0
   15.4300   15.3130   15.0860 C   0  0  0  0  0  1  0  0  0  0  0  0
  1  4  1  0
  2  1  1  0
  3  2  1  0
  4  5  1  0
  5  6  2  0
  5  7  1  0
  7  9  1  0
  8  7  1  0
  9 11  2  0
  9 10  1  0
 10 12  2  0
 11 13  1  0
 12 14  1  0
 13 15  1  0
 13 14  2  0
 14 16  1  0
 17  1  1  0
 18 17  1  0
 18 20  1  0
 19 18  2  0
 20 21  1  0
 22 20  1  0
 22 24  1  0
 23 22  1  0
M  RAD  8   2   3   3   2   4   3  10   2  11   2  12   2  16   2  17   3
M  RAD  3  22   2  23   2  24   2
M  END
>  <vina_score>  (2) 
-5.8280000000000003

>  <pose_id>  (2) 
2

$$$$

     RDKit          3D

 24 24  0  0  0  0  0  0  0  0999 V2000
   16.6430   15.5560   12.6240 N   0  0  0  0  0  0  0  0  0  0  0  0
   15.4860   15.1590   11.8110 C   0  0  0  0  0  2  0  0  0  0  0  0
   14.8070   13.8940   12.3250 C   0  0  0  0  0  1  0  0  0  0  0  0
   17.5270   16.5150   11.9390 C   0  0  0  0  0  2  0  0  0  0  0  0
   18.6840   15.7590   11.2560 C   0  0  0  0  0  0  0  0  0  0  0  0
   18.6180   15.4330   10.0730 O   0  0  0  0  0  0  0  0  0  0  0  0
   19.7400   15.4900   12.1140 N   0  0  0  0  0  0  0  0  0  0  0  0
   19.6020   15.6990   13.0950 H   0  0  0  0  0  0  0  0  0  0  0  0
   20.9690   14.8830   11.7800 C   0  0  0  0  0  0  0  0  0  0  0  0
   21.7170   15.4720   10.7490 C   0  0  0  0  0  3  0  0  0  0  0  0
   21.4600   13.7300   12.3890 C   0  0  0  0  0  3  0  0  0  0  0  0
   22.9390   14.9230   10.3430 C   0  0  0  0  0  3  0  0  0  0  0  0
   22.6730   13.1840   11.9740 C   0  0  0  0  0  0  0  0  0  0  0  0
   23.4320   13.7720   10.9600 C   0  0  0  0  0  0  0  0  0  0  0  0
   23.1030   12.0530   12.5540 F   0  0  0  0  0  0  0  0  0  0  0  0
   24.7110   13.1310   10.5120 C   0  0  0  0  0  1  0  0  0  0  0  0
   16.1910   16.0810   13.9350 C   0  0  0  0  0  2  0  0  0  0  0  0
   17.0940   15.5320   15.0440 C   0  0  0  0  0  0  0  0  0  0  0  0
   17.3410   16.1650   16.0630 O   0  0  0  0  0  0  0  0  0  0  0  0
   17.6250   14.2930   14.7330 N   0  0  0  0  0  0  0  0  0  0  0  0
   17.1110   13.8030   14.0000 H   0  0  0  0  0  0  0  0  0  0  0  0
   18.3940   13.5030   15.6790 C   0  0  0  0  0  3  0  0  0  0  0  0
   17.4620   12.9110   16.7340 C   0  0  0  0  0  1  0  0  0  0  0  0
   19.1680   12.3800   14.9860 C   0  0  0  0  0  1  0  0  0  0  0  0
  1 17  1  0
  2  3  1  0
  2  1  1  0
  4  1  1  0
  5  4  1  0
  5  7  1  0
  6  5  2  0
  7  8  1  0
  9  7  1  0
  9 11  2  0
 10  9  1  0
 12 10  2  0
 12 14  1  0
 13 11  1  0
 13 15  1  0
 14 13  2  0
 16 14  1  0
 17 18  1  0
 18 19  2  0
 20 18  1  0
 20 22  1  0
 21 20  1  0
 22 23  1  0
 24 22  1  0
M  RAD  8   2   3   3   2   4   3  10   2  11   2  12   2  16   2  17   3
M  RAD  3  22   2  23   2  24   2
M  END
>  <vina_score>  (3) 
-5.7930000000000001

>  <pose_id>  (3) 
3

$$$$

     RDKit          3D

 24 24  0  0  0  0  0  0  0  0999 V2000
   23.6120    9.9370   16.6730 N   0  0  0  0  0  0  0  0  0  0  0  0
   24.1910    8.8550   15.8650 C   0  0  0  0  0  2  0  0  0  0  0  0
   23.2730    8.4040   14.7340 C   0  0  0  0  0  1  0  0  0  0  0  0
   23.2880    9.5190   18.0480 C   0  0  0  0  0  2  0  0  0  0  0  0
   21.8720   10.0020   18.4190 C   0  0  0  0  0  0  0  0  0  0  0  0
   21.1520   10.5540   17.5910 O   0  0  0  0  0  0  0  0  0  0  0  0
   21.5470    9.7640   19.7460 N   0  0  0  0  0  0  0  0  0  0  0  0
   22.2860    9.4220   20.3480 H   0  0  0  0  0  0  0  0  0  0  0  0
   20.3090   10.0180   20.3750 C   0  0  0  0  0  0  0  0  0  0  0  0
   20.2750   11.0430   21.3330 C   0  0  0  0  0  3  0  0  0  0  0  0
   19.1440    9.2980   20.1210 C   0  0  0  0  0  3  0  0  0  0  0  0
   19.0920   11.3480   22.0160 C   0  0  0  0  0  3  0  0  0  0  0  0
   17.9720    9.6030   20.8110 C   0  0  0  0  0  0  0  0  0  0  0  0
   17.9230   10.6310   21.7540 C   0  0  0  0  0  0  0  0  0  0  0  0
   16.8750    8.8680   20.5720 F   0  0  0  0  0  0  0  0  0  0  0  0
   16.6560   10.8990   22.5070 C   0  0  0  0  0  1  0  0  0  0  0  0
   24.5080   11.1180   16.6650 C   0  0  0  0  0  2  0  0  0  0  0  0
   24.1410   12.0290   15.4890 C   0  0  0  0  0  0  0  0  0  0  0  0
   24.9720   12.7150   14.9070 O   0  0  0  0  0  0  0  0  0  0  0  0
   22.7850   12.0230   15.2140 N   0  0  0  0  0  0  0  0  0  0  0  0
   22.2980   11.2120   15.5950 H   0  0  0  0  0  0  0  0  0  0  0  0
   22.2110   12.6920   14.0590 C   0  0  0  0  0  3  0  0  0  0  0  0
   22.3480   11.8010   12.8260 C   0  0  0  0  0  1  0  0  0  0  0  0
   20.7390   13.0450   14.2800 C   0  0  0  0  0  1  0  0  0  0  0  0
  1  4  1  0
  2  1  1  0
  3  2  1  0
  4  5  1  0
  5  7  1  0
  6  5  2  0
  7  8  1  0
  7  9  1  0
  9 10  1  0
 10 12  2  0
 11  9  2  0
 11 13  1  0
 13 14  2  0
 14 12  1  0
 14 16  1  0
 15 13  1  0
 17  1  1  0
 18 17  1  0
 19 18  2  0
 20 18  1  0
 20 21  1  0
 22 24  1  0
 22 20  1  0
 23 22  1  0
M  RAD  8   2   3   3   2   4   3  10   2  11   2  12   2  16   2  17   3
M  RAD  3  22   2  23   2  24   2
M  END
>  <vina_score>  (4) 
-5.7789999999999999

>  <pose_id>  (4) 
4

$$$$

     RDKit          3D

 24 24  0  0  0  0  0  0  0  0999 V2000
   16.6790   14.8830   14.3450 N   0  0  0  0  0  0  0  0  0  0  0  0
   15.4560   15.6430   14.6380 C   0  0  0  0  0  2  0  0  0  0  0  0
   15.1420   15.7080   16.1290 C   0  0  0  0  0  1  0  0  0  0  0  0
   17.7840   15.7310   13.8670 C   0  0  0  0  0  2  0  0  0  0  0  0
   18.7480   14.8920   13.0040 C   0  0  0  0  0  0  0  0  0  0  0  0
   18.3390   13.9500   12.3300 O   0  0  0  0  0  0  0  0  0  0  0  0
   20.0680   15.3060   13.1040 N   0  0  0  0  0  0  0  0  0  0  0  0
   20.2790   16.0110   13.8000 H   0  0  0  0  0  0  0  0  0  0  0  0
   21.1730   14.7960   12.3890 C   0  0  0  0  0  0  0  0  0  0  0  0
   21.8460   13.6990   12.9470 C   0  0  0  0  0  3  0  0  0  0  0  0
   21.6420   15.3350   11.1940 C   0  0  0  0  0  3  0  0  0  0  0  0
   22.9630   13.1430   12.3120 C   0  0  0  0  0  3  0  0  0  0  0  0
   22.7600   14.7810   10.5720 C   0  0  0  0  0  0  0  0  0  0  0  0
   23.4270   13.6790   11.1090 C   0  0  0  0  0  0  0  0  0  0  0  0
   23.2120   15.3430    9.4400 F   0  0  0  0  0  0  0  0  0  0  0  0
   24.6520   13.1400   10.4340 C   0  0  0  0  0  1  0  0  0  0  0  0
   17.0830   14.0880   15.5300 C   0  0  0  0  0  2  0  0  0  0  0  0
   16.9070   12.5960   15.2270 C   0  0  0  0  0  0  0  0  0  0  0  0
   15.8470   12.0110   15.4090 O   0  0  0  0  0  0  0  0  0  0  0  0
   18.0770   12.0000   14.7920 N   0  0  0  0  0  0  0  0  0  0  0  0
   18.7660   12.6660   14.4410 H   0  0  0  0  0  0  0  0  0  0  0  0
   18.1330   10.6310   14.3080 C   0  0  0  0  0  3  0  0  0  0  0  0
   19.1990   10.5120   13.2200 C   0  0  0  0  0  1  0  0  0  0  0  0
   18.4330    9.6410   15.4340 C   0  0  0  0  0  1  0  0  0  0  0  0
  1  2  1  0
  1 17  1  0
  2  3  1  0
  4  1  1  0
  5  7  1  0
  5  4  1  0
  6  5  2  0
  7  8  1  0
  9 10  1  0
  9  7  1  0
 11  9  2  0
 12 10  2  0
 13 14  2  0
 13 11  1  0
 14 12  1  0
 15 13  1  0
 16 14  1  0
 18 19  2  0
 18 17  1  0
 20 18  1  0
 21 20  1  0
 22 20  1  0
 22 24  1  0
 23 22  1  0
M  RAD  8   2   3   3   2   4   3  10   2  11   2  12   2  16   2  17   3
M  RAD  3  22   2  23   2  24   2
M  END
>  <vina_score>  (5) 
-5.7610000000000001

>  <pose_id>  (5) 
5

$$$$
