
     RDKit          3D

 24 25  0  0  0  0  0  0  0  0999 V2000
   17.7760   12.6320   15.6120 N   0  0  0  0  0  0  0  0  0  0  0  0
   18.4610   12.7250   14.3610 C   0  0  0  0  0  0  0  0  0  0  0  0
   18.7380   14.0310   13.9780 N   0  0  0  0  0  0  0  0  0  0  0  0
   18.9870   11.4010   13.4520 S   0  0  0  0  0  0  0  0  0  0  0  0
   19.1920   14.5790   14.6970 H   0  0  0  0  0  0  0  0  0  0  0  0
   18.7700   14.5750   12.6670 C   0  0  0  0  0  0  0  0  0  0  0  0
   20.0210   15.4730   10.7670 C   0  0  0  0  0  0  0  0  0  0  0  0
   18.8080   15.8160   10.1520 C   0  0  0  0  0  3  0  0  0  0  0  0
   20.0090   14.8300   12.0310 C   0  0  0  0  0  0  0  0  0  0  0  0
   17.5950   15.5590   10.7810 C   0  0  0  0  0  3  0  0  0  0  0  0
   17.5790   14.9550   12.0340 C   0  0  0  0  0  3  0  0  0  0  0  0
   21.3010   15.7880   10.0390 C   0  0  0  0  0  1  0  0  0  0  0  0
   21.3040   14.4290   12.6940 C   0  0  0  0  0  1  0  0  0  0  0  0
   18.5310   12.4930   16.8840 C   0  0  0  0  0  2  0  0  0  0  0  0
   17.7950   11.7470   18.0120 C   0  0  0  0  0  2  0  0  0  0  0  0
   18.5610   11.5920   19.3000 C   0  0  0  0  0  0  0  0  0  0  0  0
   19.9590   11.5820   19.3050 C   0  0  0  0  0  3  0  0  0  0  0  0
   17.8900   11.4290   20.5150 C   0  0  0  0  0  3  0  0  0  0  0  0
   20.6190   11.4250   20.5130 C   0  0  0  0  0  3  0  0  0  0  0  0
   18.6400   11.2660   21.6710 C   0  0  0  0  0  3  0  0  0  0  0  0
   19.9880   11.2730   21.6970 N   0  0  0  0  0  0  0  0  0  0  0  0
   16.3540   13.0860   15.7190 C   0  0  0  0  0  3  0  0  0  0  0  0
   15.5740   12.7630   14.4370 C   0  0  0  0  0  1  0  0  0  0  0  0
   16.1770   14.5620   16.0820 C   0  0  0  0  0  1  0  0  0  0  0  0
  1 22  1  0
  1 14  1  0
  2  1  1  0
  3  2  1  0
  3  5  1  0
  4  2  2  0
  6  3  1  0
  7  9  2  0
  8  7  1  0
  8 10  2  0
  9  6  1  0
  9 13  1  0
 10 11  1  0
 11  6  2  0
 12  7  1  0
 14 15  1  0
 15 16  1  0
 16 17  1  0
 16 18  2  0
 17 19  2  0
 18 20  1  0
 19 21  1  0
 20 21  2  0
 22 24  1  0
 23 22  1  0
M  RAD  8   8   2  10   2  11   2  12   2  13   2  14   3  15   3  17   2
M  RAD  6  18   2  19   2  20   2  22   2  23   2  24   2
M  END
>  <vina_score>  (1) 
-6.6760000000000002

>  <pose_id>  (1) 
1

$$$$

     RDKit          3D

 24 25  0  0  0  0  0  0  0  0999 V2000
   17.2250   12.6620   16.0830 N   0  0  0  0  0  0  0  0  0  0  0  0
   17.4620   12.6420   14.6750 C   0  0  0  0  0  0  0  0  0  0  0  0
   17.9410   13.8460   14.1770 N   0  0  0  0  0  0  0  0  0  0  0  0
   17.2830   11.2800   13.6890 S   0  0  0  0  0  0  0  0  0  0  0  0
   18.7350   14.2110   14.6860 H   0  0  0  0  0  0  0  0  0  0  0  0
   17.6890   14.4370   12.9100 C   0  0  0  0  0  0  0  0  0  0  0  0
   18.4990   15.4590   10.8420 C   0  0  0  0  0  0  0  0  0  0  0  0
   17.1740   15.7670   10.4950 C   0  0  0  0  0  3  0  0  0  0  0  0
   18.7650   14.7720   12.0540 C   0  0  0  0  0  0  0  0  0  0  0  0
   16.1230   15.4320   11.3410 C   0  0  0  0  0  3  0  0  0  0  0  0
   16.3820   14.7830   12.5450 C   0  0  0  0  0  3  0  0  0  0  0  0
   19.5940   15.8580    9.8880 C   0  0  0  0  0  1  0  0  0  0  0  0
   20.1810   14.4080   12.4270 C   0  0  0  0  0  1  0  0  0  0  0  0
   18.3530   12.7690   17.0430 C   0  0  0  0  0  2  0  0  0  0  0  0
   18.9650   11.4310   17.4990 C   0  0  0  0  0  2  0  0  0  0  0  0
   19.3680   11.3590   18.9490 C   0  0  0  0  0  0  0  0  0  0  0  0
   18.4490   11.6380   19.9640 C   0  0  0  0  0  3  0  0  0  0  0  0
   20.6790   11.0350   19.3100 C   0  0  0  0  0  3  0  0  0  0  0  0
   18.8700   11.5700   21.2820 C   0  0  0  0  0  3  0  0  0  0  0  0
   21.0080   11.0030   20.6570 C   0  0  0  0  0  3  0  0  0  0  0  0
   20.1300   11.2520   21.6500 N   0  0  0  0  0  0  0  0  0  0  0  0
   15.8620   12.9970   16.6060 C   0  0  0  0  0  3  0  0  0  0  0  0
   15.6680   14.5160   16.7030 C   0  0  0  0  0  1  0  0  0  0  0  0
   15.5060   12.3360   17.9390 C   0  0  0  0  0  1  0  0  0  0  0  0
  1 22  1  0
  1 14  1  0
  2  1  1  0
  3  2  1  0
  3  5  1  0
  4  2  2  0
  6  3  1  0
  7  9  2  0
  8  7  1  0
  8 10  2  0
  9 13  1  0
  9  6  1  0
 10 11  1  0
 11  6  2  0
 12  7  1  0
 14 15  1  0
 15 16  1  0
 16 18  2  0
 16 17  1  0
 17 19  2  0
 18 20  1  0
 19 21  1  0
 20 21  2  0
 22 23  1  0
 22 24  1  0
M  RAD  8   8   2  10   2  11   2  12   2  13   2  14   3  15   3  17   2
M  RAD  6  18   2  19   2  20   2  22   2  23   2  24   2
M  END
>  <vina_score>  (2) 
-6.6379999999999999

>  <pose_id>  (2) 
2

$$$$

     RDKit          3D

 24 25  0  0  0  0  0  0  0  0999 V2000
   22.6710   12.1770   13.5180 N   0  0  0  0  0  0  0  0  0  0  0  0
   22.8120   12.9910   12.3520 C   0  0  0  0  0  0  0  0  0  0  0  0
   22.2100   14.2370   12.4710 N   0  0  0  0  0  0  0  0  0  0  0  0
   23.6980   12.5580   10.9790 S   0  0  0  0  0  0  0  0  0  0  0  0
   22.4690   14.7360   13.3120 H   0  0  0  0  0  0  0  0  0  0  0  0
   21.5720   15.0050   11.4610 C   0  0  0  0  0  0  0  0  0  0  0  0
   19.5420   15.7360   10.3100 C   0  0  0  0  0  0  0  0  0  0  0  0
   20.3380   16.3790    9.3500 C   0  0  0  0  0  3  0  0  0  0  0  0
   20.1590   15.0530   11.3890 C   0  0  0  0  0  0  0  0  0  0  0  0
   21.7250   16.3290    9.4300 C   0  0  0  0  0  3  0  0  0  0  0  0
   22.3350   15.6360   10.4710 C   0  0  0  0  0  3  0  0  0  0  0  0
   18.0450   15.8180   10.1620 C   0  0  0  0  0  1  0  0  0  0  0  0
   19.3170   14.3810   12.4450 C   0  0  0  0  0  1  0  0  0  0  0  0
   23.4640   12.4590   14.7420 C   0  0  0  0  0  2  0  0  0  0  0  0
   24.9050   11.9160   14.7370 C   0  0  0  0  0  2  0  0  0  0  0  0
   25.1010   10.5780   15.4020 C   0  0  0  0  0  0  0  0  0  0  0  0
   26.1700    9.7510   15.0470 C   0  0  0  0  0  3  0  0  0  0  0  0
   24.2020   10.1240   16.3720 C   0  0  0  0  0  3  0  0  0  0  0  0
   26.3010    8.5240   15.6780 C   0  0  0  0  0  3  0  0  0  0  0  0
   24.4110    8.8760   16.9390 C   0  0  0  0  0  3  0  0  0  0  0  0
   25.4470    8.0720   16.6210 N   0  0  0  0  0  0  0  0  0  0  0  0
   21.4570   11.3160   13.6850 C   0  0  0  0  0  3  0  0  0  0  0  0
   20.6490   11.7380   14.9190 C   0  0  0  0  0  1  0  0  0  0  0  0
   21.7380    9.8130   13.7300 C   0  0  0  0  0  1  0  0  0  0  0  0
  1 22  1  0
  1 14  1  0
  2  3  1  0
  2  1  1  0
  3  5  1  0
  4  2  2  0
  6  3  1  0
  7  9  2  0
  8 10  2  0
  8  7  1  0
  9  6  1  0
  9 13  1  0
 10 11  1  0
 11  6  2  0
 12  7  1  0
 15 14  1  0
 15 16  1  0
 16 18  2  0
 17 16  1  0
 17 19  2  0
 18 20  1  0
 19 21  1  0
 21 20  2  0
 22 24  1  0
 22 23  1  0
M  RAD  8   8   2  10   2  11   2  12   2  13   2  14   3  15   3  17   2
M  RAD  6  18   2  19   2  20   2  22   2  23   2  24   2
M  END
>  <vina_score>  (3) 
-6.4569999999999999

>  <pose_id>  (3) 
3

$$$$

     RDKit          3D

 24 25  0  0  0  0  0  0  0  0999 V2000
   22.1880   10.2200   15.8460 N   0  0  0  0  0  0  0  0  0  0  0  0
   21.0970    9.9740   16.7350 C   0  0  0  0  0  0  0  0  0  0  0  0
   20.9010   10.9880   17.6640 N   0  0  0  0  0  0  0  0  0  0  0  0
   20.0610    8.6430   16.6400 S   0  0  0  0  0  0  0  0  0  0  0  0
   20.8520   11.9120   17.2550 H   0  0  0  0  0  0  0  0  0  0  0  0
   20.4500   10.8760   19.0060 C   0  0  0  0  0  0  0  0  0  0  0  0
   18.6990   11.1500   20.6910 C   0  0  0  0  0  0  0  0  0  0  0  0
   19.6310   10.8230   21.6880 C   0  0  0  0  0  3  0  0  0  0  0  0
   19.1020   11.1620   19.3310 C   0  0  0  0  0  0  0  0  0  0  0  0
   20.9510   10.5390   21.3600 C   0  0  0  0  0  3  0  0  0  0  0  0
   21.3590   10.5790   20.0300 C   0  0  0  0  0  3  0  0  0  0  0  0
   17.2860   11.4560   21.1120 C   0  0  0  0  0  1  0  0  0  0  0  0
   18.1070   11.4840   18.2450 C   0  0  0  0  0  1  0  0  0  0  0  0
   22.2090   11.4310   14.9850 C   0  0  0  0  0  2  0  0  0  0  0  0
   23.6080   11.9920   14.6680 C   0  0  0  0  0  2  0  0  0  0  0  0
   24.0160   11.9470   13.2180 C   0  0  0  0  0  0  0  0  0  0  0  0
   24.1840   10.7250   12.5590 C   0  0  0  0  0  3  0  0  0  0  0  0
   24.2610   13.1250   12.5070 C   0  0  0  0  0  3  0  0  0  0  0  0
   24.5720   10.7340   11.2290 C   0  0  0  0  0  3  0  0  0  0  0  0
   24.6570   13.0300   11.1820 C   0  0  0  0  0  3  0  0  0  0  0  0
   24.8060   11.8620   10.5250 N   0  0  0  0  0  0  0  0  0  0  0  0
   23.4950    9.5210   16.0570 C   0  0  0  0  0  3  0  0  0  0  0  0
   23.6010    8.2740   15.1690 C   0  0  0  0  0  1  0  0  0  0  0  0
   23.8000    9.1570   17.5110 C   0  0  0  0  0  1  0  0  0  0  0  0
  1 22  1  0
  1  2  1  0
  2  3  1  0
  3  6  1  0
  4  2  2  0
  5  3  1  0
  6  9  1  0
  6 11  2  0
  7 12  1  0
  7  8  1  0
  9  7  2  0
 10  8  2  0
 11 10  1  0
 13  9  1  0
 14  1  1  0
 15 14  1  0
 16 15  1  0
 17 16  1  0
 18 16  2  0
 19 17  2  0
 20 18  1  0
 21 20  2  0
 21 19  1  0
 22 24  1  0
 23 22  1  0
M  RAD  8   8   2  10   2  11   2  12   2  13   2  14   3  15   3  17   2
M  RAD  6  18   2  19   2  20   2  22   2  23   2  24   2
M  END
>  <vina_score>  (4) 
-6.4470000000000001

>  <pose_id>  (4) 
4

$$$$

     RDKit          3D

 24 25  0  0  0  0  0  0  0  0999 V2000
   21.0470   11.3060   15.3930 N   0  0  0  0  0  0  0  0  0  0  0  0
   20.2680   10.7190   16.4370 C   0  0  0  0  0  0  0  0  0  0  0  0
   20.0530   11.5710   17.5120 N   0  0  0  0  0  0  0  0  0  0  0  0
   19.5740    9.1790   16.3690 S   0  0  0  0  0  0  0  0  0  0  0  0
   19.7010   12.4820   17.2470 H   0  0  0  0  0  0  0  0  0  0  0  0
   19.9490   11.2400   18.8890 C   0  0  0  0  0  0  0  0  0  0  0  0
   18.6200   11.0270   20.9310 C   0  0  0  0  0  0  0  0  0  0  0  0
   19.7950   10.7590   21.6480 C   0  0  0  0  0  3  0  0  0  0  0  0
   18.6880   11.2540   19.5320 C   0  0  0  0  0  0  0  0  0  0  0  0
   21.0290   10.7430   21.0090 C   0  0  0  0  0  3  0  0  0  0  0  0
   21.1050   10.9950   19.6420 C   0  0  0  0  0  3  0  0  0  0  0  0
   17.3150   11.0400   21.6830 C   0  0  0  0  0  1  0  0  0  0  0  0
   17.4300   11.5150   18.7410 C   0  0  0  0  0  1  0  0  0  0  0  0
   22.4870   10.9730   15.2390 C   0  0  0  0  0  2  0  0  0  0  0  0
   23.3860   12.1280   14.7600 C   0  0  0  0  0  2  0  0  0  0  0  0
   23.8990   12.0120   13.3480 C   0  0  0  0  0  0  0  0  0  0  0  0
   24.1540   13.1540   12.5820 C   0  0  0  0  0  3  0  0  0  0  0  0
   24.1080   10.7600   12.7640 C   0  0  0  0  0  3  0  0  0  0  0  0
   24.6130   12.9970   11.2850 C   0  0  0  0  0  3  0  0  0  0  0  0
   24.5590   10.7050   11.4540 C   0  0  0  0  0  3  0  0  0  0  0  0
   24.8270   11.7950   10.7060 N   0  0  0  0  0  0  0  0  0  0  0  0
   20.3670   11.9160   14.2070 C   0  0  0  0  0  3  0  0  0  0  0  0
   19.0390   12.5700   14.6110 C   0  0  0  0  0  1  0  0  0  0  0  0
   20.1450   10.9610   13.0320 C   0  0  0  0  0  1  0  0  0  0  0  0
  1  2  1  0
  2  3  1  0
  3  6  1  0
  4  2  2  0
  5  3  1  0
  6  9  1  0
  6 11  2  0
  7  8  1  0
  7 12  1  0
  9  7  2  0
 10  8  2  0
 11 10  1  0
 13  9  1  0
 14  1  1  0
 15 14  1  0
 16 15  1  0
 17 16  1  0
 18 16  2  0
 19 17  2  0
 20 18  1  0
 21 19  1  0
 21 20  2  0
 22 23  1  0
 22  1  1  0
 24 22  1  0
M  RAD  8   8   2  10   2  11   2  12   2  13   2  14   3  15   3  17   2
M  RAD  6  18   2  19   2  20   2  22   2  23   2  24   2
M  END
>  <vina_score>  (5) 
-6.4370000000000003

>  <pose_id>  (5) 
5

$$$$
