
     RDKit          3D

 25 28  0  0  1  0  0  0  0  0999 V2000
   22.5290   13.4650   12.9090 C   0  0  0  0  0  3  0  0  0  0  0  0
   22.2530   14.3310   11.7150 C   0  0  0  0  0  0  0  0  0  0  0  0
   21.2070   15.2080   11.4770 C   0  0  0  0  0  3  0  0  0  0  0  0
   21.1910   15.9060   10.2640 C   0  0  0  0  0  3  0  0  0  0  0  0
   22.2130   15.7270    9.3130 C   0  0  0  0  0  3  0  0  0  0  0  0
   23.2670   14.8470    9.5610 C   0  0  0  0  0  3  0  0  0  0  0  0
   23.2560   14.1650   10.7630 C   0  0  0  0  0  0  0  0  0  0  0  0
   24.2390   13.2110   11.2860 C   0  0  0  0  0  0  0  0  0  0  0  0
   25.2740   12.9170   10.7220 O   0  0  0  0  0  0  0  0  0  0  0  0
   23.7700   12.7730   12.5200 N   0  0  0  0  0  0  0  0  0  0  0  0
   21.3600   12.4990   13.1920 C   0  0  0  0  0  0  0  0  0  0  0  0
   21.2440   11.4250   12.6050 O   0  0  0  0  0  0  0  0  0  0  0  0
   20.5310   12.8800   14.2300 N   0  0  0  0  0  0  0  0  0  0  0  0
   20.6580   13.8160   14.6030 H   0  0  0  0  0  0  0  0  0  0  0  0
   19.3840   12.0870   14.6360 C   0  0  0  0  0  3  0  0  0  0  0  0
   18.8220   12.5560   15.9740 C   0  0  0  0  0  2  0  0  0  0  0  0
   18.2000   12.2670   13.6880 C   0  0  0  0  0  2  0  0  0  0  0  0
   17.9580   13.7590   15.6170 C   0  0  0  0  0  2  0  0  0  0  0  0
   17.4420   13.4910   14.2040 C   0  0  0  0  0  2  0  0  0  0  0  0
   24.5990   12.0920   13.5150 C   0  0  0  0  0  3  0  0  0  0  0  0
   24.4270   10.5690   13.4560 C   0  0  0  0  0  2  0  0  0  0  0  0
   24.3780   12.6350   14.9400 C   0  0  0  0  0  2  0  0  0  0  0  0
   25.4140    9.8500   14.3780 C   0  0  0  0  0  2  0  0  0  0  0  0
   24.6700   11.6080   16.0360 C   0  0  0  0  0  2  0  0  0  0  0  0
   25.7800   10.6490   15.6300 C   0  0  0  0  0  2  0  0  0  0  0  0
  1 11  1  0
  2  1  1  0
  3  2  2  0
  4  3  1  0
  5  6  1  0
  5  4  2  0
  6  7  2  0
  7  8  1  0
  7  2  1  0
  8 10  1  0
  9  8  2  0
 10  1  1  0
 10 20  1  0
 11 13  1  0
 12 11  2  0
 13 14  1  0
 13 15  1  0
 15 16  1  0
 17 19  1  0
 17 15  1  0
 18 16  1  0
 19 18  1  0
 20 22  1  0
 21 20  1  0
 21 23  1  0
 22 24  1  0
 23 25  1  0
 25 24  1  0
M  RAD  8   1   2   3   2   4   2   5   2   6   2  15   2  16   3  17   3
M  RAD  8  18   3  19   3  20   2  21   3  22   3  23   3  24   3  25   3
M  END
>  <vina_score>  (1) 
-7.5149999999999997

>  <pose_id>  (1) 
1

$$$$

     RDKit          3D

 25 28  0  0  1  0  0  0  0  0999 V2000
   22.5510   13.1670   13.2840 C   0  0  0  0  0  3  0  0  0  0  0  0
   22.1390   14.0560   12.1470 C   0  0  0  0  0  0  0  0  0  0  0  0
   21.0010   14.8310   11.9930 C   0  0  0  0  0  3  0  0  0  0  0  0
   20.8640   15.5790   10.8190 C   0  0  0  0  0  3  0  0  0  0  0  0
   21.8570   15.5520    9.8220 C   0  0  0  0  0  3  0  0  0  0  0  0
   23.0040   14.7730    9.9850 C   0  0  0  0  0  3  0  0  0  0  0  0
   23.1120   14.0380   11.1510 C   0  0  0  0  0  0  0  0  0  0  0  0
   24.2070   13.1660   11.5870 C   0  0  0  0  0  0  0  0  0  0  0  0
   25.2420   13.0070   10.9700 O   0  0  0  0  0  0  0  0  0  0  0  0
   23.8380   12.6260   12.8130 N   0  0  0  0  0  0  0  0  0  0  0  0
   21.4980   12.0750   13.5620 C   0  0  0  0  0  0  0  0  0  0  0  0
   21.0170   11.3890   12.6610 O   0  0  0  0  0  0  0  0  0  0  0  0
   21.2300   11.8520   14.8990 N   0  0  0  0  0  0  0  0  0  0  0  0
   21.6160   12.5170   15.5630 H   0  0  0  0  0  0  0  0  0  0  0  0
   20.2700   10.8580   15.3420 C   0  0  0  0  0  3  0  0  0  0  0  0
   20.9140    9.4860   15.5020 C   0  0  0  0  0  2  0  0  0  0  0  0
   19.7470   11.1540   16.7460 C   0  0  0  0  0  2  0  0  0  0  0  0
   21.5920    9.5460   16.8650 C   0  0  0  0  0  2  0  0  0  0  0  0
   20.7470   10.5050   17.7030 C   0  0  0  0  0  2  0  0  0  0  0  0
   24.7730   11.9870   13.7410 C   0  0  0  0  0  3  0  0  0  0  0  0
   24.5960   10.4640   13.7720 C   0  0  0  0  0  2  0  0  0  0  0  0
   24.7110   12.5960   15.1550 C   0  0  0  0  0  2  0  0  0  0  0  0
   25.6790    9.7830   14.6110 C   0  0  0  0  0  2  0  0  0  0  0  0
   25.1240   11.6200   16.2580 C   0  0  0  0  0  2  0  0  0  0  0  0
   26.1820   10.6370   15.7760 C   0  0  0  0  0  2  0  0  0  0  0  0
  1 11  1  0
  2  1  1  0
  3  2  2  0
  4  3  1  0
  5  6  1  0
  5  4  2  0
  6  7  2  0
  7  8  1  0
  7  2  1  0
  8 10  1  0
  9  8  2  0
 10  1  1  0
 10 20  1  0
 11 13  1  0
 12 11  2  0
 13 15  1  0
 13 14  1  0
 15 16  1  0
 15 17  1  0
 16 18  1  0
 17 19  1  0
 18 19  1  0
 20 21  1  0
 20 22  1  0
 21 23  1  0
 22 24  1  0
 23 25  1  0
 25 24  1  0
M  RAD  8   1   2   3   2   4   2   5   2   6   2  15   2  16   3  17   3
M  RAD  8  18   3  19   3  20   2  21   3  22   3  23   3  24   3  25   3
M  END
>  <vina_score>  (2) 
-7.4299999999999997

>  <pose_id>  (2) 
2

$$$$

     RDKit          3D

 25 28  0  0  1  0  0  0  0  0999 V2000
   18.3450   12.3950   17.4730 C   0  0  0  0  0  3  0  0  0  0  0  0
   18.5310   11.7320   18.8070 C   0  0  0  0  0  0  0  0  0  0  0  0
   19.6810   11.5610   19.5600 C   0  0  0  0  0  3  0  0  0  0  0  0
   19.5750   10.9000   20.7890 C   0  0  0  0  0  3  0  0  0  0  0  0
   18.3330   10.4270   21.2520 C   0  0  0  0  0  3  0  0  0  0  0  0
   17.1770   10.6080   20.4910 C   0  0  0  0  0  3  0  0  0  0  0  0
   17.3100   11.2570   19.2780 C   0  0  0  0  0  0  0  0  0  0  0  0
   16.2700   11.5990   18.3020 C   0  0  0  0  0  0  0  0  0  0  0  0
   15.0850   11.3890   18.4640 O   0  0  0  0  0  0  0  0  0  0  0  0
   16.9020   12.2180   17.2290 N   0  0  0  0  0  0  0  0  0  0  0  0
   19.2280   11.7460   16.3880 C   0  0  0  0  0  0  0  0  0  0  0  0
   19.2590   10.5280   16.2140 O   0  0  0  0  0  0  0  0  0  0  0  0
   19.8810   12.6380   15.5600 N   0  0  0  0  0  0  0  0  0  0  0  0
   19.8570   13.6180   15.8270 H   0  0  0  0  0  0  0  0  0  0  0  0
   20.7490   12.2020   14.4820 C   0  0  0  0  0  3  0  0  0  0  0  0
   20.0050   12.1320   13.1530 C   0  0  0  0  0  2  0  0  0  0  0  0
   21.8590   13.2120   14.1980 C   0  0  0  0  0  2  0  0  0  0  0  0
   19.9890   13.5730   12.6570 C   0  0  0  0  0  2  0  0  0  0  0  0
   21.2610   14.2130   13.2100 C   0  0  0  0  0  2  0  0  0  0  0  0
   16.2050   13.0100   16.2150 C   0  0  0  0  0  3  0  0  0  0  0  0
   16.1610   12.2930   14.8610 C   0  0  0  0  0  2  0  0  0  0  0  0
   16.7740   14.4360   16.0860 C   0  0  0  0  0  2  0  0  0  0  0  0
   15.2910   13.0420   13.8500 C   0  0  0  0  0  2  0  0  0  0  0  0
   16.5730   15.0490   14.6980 C   0  0  0  0  0  2  0  0  0  0  0  0
   15.2880   14.5590   14.0450 C   0  0  0  0  0  2  0  0  0  0  0  0
  1 11  1  0
  1  2  1  0
  2  7  1  0
  2  3  2  0
  3  4  1  0
  4  5  2  0
  6  5  1  0
  7  6  2  0
  8  9  2  0
  8  7  1  0
 10  1  1  0
 10  8  1  0
 12 11  2  0
 13 14  1  0
 13 11  1  0
 15 13  1  0
 16 15  1  0
 17 15  1  0
 18 16  1  0
 18 19  1  0
 19 17  1  0
 20 10  1  0
 21 20  1  0
 22 20  1  0
 23 25  1  0
 23 21  1  0
 24 22  1  0
 25 24  1  0
M  RAD  8   1   2   3   2   4   2   5   2   6   2  15   2  16   3  17   3
M  RAD  8  18   3  19   3  20   2  21   3  22   3  23   3  24   3  25   3
M  END
>  <vina_score>  (3) 
-7.1379999999999999

>  <pose_id>  (3) 
3

$$$$

     RDKit          3D

 25 28  0  0  1  0  0  0  0  0999 V2000
   18.5370    9.5850   19.5300 C   0  0  0  0  0  3  0  0  0  0  0  0
   17.9300   10.1980   20.7580 C   0  0  0  0  0  0  0  0  0  0  0  0
   16.6730   10.0170   21.3130 C   0  0  0  0  0  3  0  0  0  0  0  0
   16.3590   10.7170   22.4820 C   0  0  0  0  0  3  0  0  0  0  0  0
   17.2950   11.5790   23.0840 C   0  0  0  0  0  3  0  0  0  0  0  0
   18.5620   11.7530   22.5240 C   0  0  0  0  0  3  0  0  0  0  0  0
   18.8450   11.0540   21.3660 C   0  0  0  0  0  0  0  0  0  0  0  0
   20.0890   11.0310   20.5900 C   0  0  0  0  0  0  0  0  0  0  0  0
   21.1050   11.6150   20.9100 O   0  0  0  0  0  0  0  0  0  0  0  0
   19.8720   10.2060   19.4920 N   0  0  0  0  0  0  0  0  0  0  0  0
   17.6940    9.8800   18.2720 C   0  0  0  0  0  0  0  0  0  0  0  0
   16.9160    9.0530   17.7990 O   0  0  0  0  0  0  0  0  0  0  0  0
   17.7940   11.1730   17.7960 N   0  0  0  0  0  0  0  0  0  0  0  0
   18.5160   11.7600   18.2030 H   0  0  0  0  0  0  0  0  0  0  0  0
   17.0660   11.6260   16.6250 C   0  0  0  0  0  3  0  0  0  0  0  0
   17.0540   13.1470   16.5230 C   0  0  0  0  0  2  0  0  0  0  0  0
   17.7510   11.2030   15.3270 C   0  0  0  0  0  2  0  0  0  0  0  0
   18.4050   13.4920   15.9080 C   0  0  0  0  0  2  0  0  0  0  0  0
   18.7710   12.3000   15.0240 C   0  0  0  0  0  2  0  0  0  0  0  0
   20.9430    9.6450   18.6660 C   0  0  0  0  0  3  0  0  0  0  0  0
   21.2500   10.5290   17.4510 C   0  0  0  0  0  2  0  0  0  0  0  0
   20.6680    8.1860   18.2540 C   0  0  0  0  0  2  0  0  0  0  0  0
   22.4760   10.0320   16.6830 C   0  0  0  0  0  2  0  0  0  0  0  0
   21.3450    7.7860   16.9410 C   0  0  0  0  0  2  0  0  0  0  0  0
   22.6660    8.5160   16.7410 C   0  0  0  0  0  2  0  0  0  0  0  0
  1 11  1  0
  1  2  1  0
  2  3  2  0
  2  7  1  0
  3  4  1  0
  4  5  2  0
  6  5  1  0
  7  6  2  0
  8  9  2  0
  8  7  1  0
 10  1  1  0
 10  8  1  0
 12 11  2  0
 13 14  1  0
 13 11  1  0
 15 13  1  0
 16 15  1  0
 17 15  1  0
 18 16  1  0
 19 17  1  0
 19 18  1  0
 20 10  1  0
 21 20  1  0
 22 20  1  0
 23 25  1  0
 23 21  1  0
 24 22  1  0
 25 24  1  0
M  RAD  8   1   2   3   2   4   2   5   2   6   2  15   2  16   3  17   3
M  RAD  8  18   3  19   3  20   2  21   3  22   3  23   3  24   3  25   3
M  END
>  <vina_score>  (4) 
-6.8029999999999999

>  <pose_id>  (4) 
4

$$$$

     RDKit          3D

 25 28  0  0  1  0  0  0  0  0999 V2000
   17.6170   12.2770   16.6780 C   0  0  0  0  0  3  0  0  0  0  0  0
   16.7200   13.2390   15.9540 C   0  0  0  0  0  0  0  0  0  0  0  0
   16.1350   14.4130   16.3990 C   0  0  0  0  0  3  0  0  0  0  0  0
   15.3330   15.1330   15.5070 C   0  0  0  0  0  3  0  0  0  0  0  0
   15.1310   14.6800   14.1890 C   0  0  0  0  0  3  0  0  0  0  0  0
   15.7270   13.4990   13.7450 C   0  0  0  0  0  3  0  0  0  0  0  0
   16.5090   12.8040   14.6490 C   0  0  0  0  0  0  0  0  0  0  0  0
   17.2630   11.5630   14.4440 C   0  0  0  0  0  0  0  0  0  0  0  0
   17.3460   10.9800   13.3810 O   0  0  0  0  0  0  0  0  0  0  0  0
   17.8640   11.2440   15.6570 N   0  0  0  0  0  0  0  0  0  0  0  0
   16.9470   11.7230   17.9520 C   0  0  0  0  0  0  0  0  0  0  0  0
   15.7730   11.3560   17.9650 O   0  0  0  0  0  0  0  0  0  0  0  0
   17.7940   11.5650   19.0320 N   0  0  0  0  0  0  0  0  0  0  0  0
   18.7230   11.9660   18.9520 H   0  0  0  0  0  0  0  0  0  0  0  0
   17.3330   11.0520   20.3090 C   0  0  0  0  0  3  0  0  0  0  0  0
   17.6350    9.5650   20.4600 C   0  0  0  0  0  2  0  0  0  0  0  0
   18.0900   11.6730   21.4810 C   0  0  0  0  0  2  0  0  0  0  0  0
   19.0980    9.5210   20.8860 C   0  0  0  0  0  2  0  0  0  0  0  0
   19.3370   10.8100   21.6700 C   0  0  0  0  0  2  0  0  0  0  0  0
   18.9640   10.2890   15.7980 C   0  0  0  0  0  3  0  0  0  0  0  0
   18.5140    8.9960   16.4880 C   0  0  0  0  0  2  0  0  0  0  0  0
   20.1950   10.9060   16.4910 C   0  0  0  0  0  2  0  0  0  0  0  0
   19.6190    7.9370   16.4860 C   0  0  0  0  0  2  0  0  0  0  0  0
   21.0570    9.8800   17.2290 C   0  0  0  0  0  2  0  0  0  0  0  0
   21.0310    8.5210   16.5420 C   0  0  0  0  0  2  0  0  0  0  0  0
  1 11  1  0
  2  3  2  0
  2  1  1  0
  4  3  1  0
  5  4  2  0
  6  5  1  0
  6  7  2  0
  7  2  1  0
  8  7  1  0
  8 10  1  0
  9  8  2  0
 10 20  1  0
 10  1  1  0
 11 12  2  0
 11 13  1  0
 13 15  1  0
 14 13  1  0
 15 16  1  0
 15 17  1  0
 16 18  1  0
 17 19  1  0
 18 19  1  0
 20 21  1  0
 20 22  1  0
 22 24  1  0
 23 21  1  0
 23 25  1  0
 25 24  1  0
M  RAD  8   1   2   3   2   4   2   5   2   6   2  15   2  16   3  17   3
M  RAD  8  18   3  19   3  20   2  21   3  22   3  23   3  24   3  25   3
M  END
>  <vina_score>  (5) 
-6.681

>  <pose_id>  (5) 
5

$$$$
