
     RDKit          3D

 21 22  0  0  0  0  0  0  0  0999 V2000
   23.2280   12.8690   13.7330 N   0  0  0  0  0  0  0  0  0  0  0  0
   24.2580   13.4280   12.8300 C   0  0  0  0  0  2  0  0  0  0  0  0
   24.5650   12.6430   11.5490 C   0  0  0  0  0  2  0  0  0  0  0  0
   24.2580   13.4020   10.2710 C   0  0  0  0  0  1  0  0  0  0  0  0
   23.7010   12.4060   15.0520 C   0  0  0  0  0  2  0  0  0  0  0  0
   25.1350   11.9590   15.0110 C   0  0  0  0  0  3  0  0  0  0  0  0
   25.7860   11.2620   16.1810 C   0  0  0  0  0  2  0  0  0  0  0  0
   25.4450   10.4830   14.9450 C   0  0  0  0  0  2  0  0  0  0  0  0
   22.0230   12.3930   13.2110 C   0  0  0  0  0  0  0  0  0  0  0  0
   21.3760   10.8510   13.4210 S   0  0  0  0  0  0  0  0  0  0  0  0
   21.2860   13.2100   12.3880 N   0  0  0  0  0  0  0  0  0  0  0  0
   20.8850   14.5070   12.6800 C   0  0  0  0  0  0  0  0  0  0  0  0
   21.3020   15.2220   13.5790 O   0  0  0  0  0  0  0  0  0  0  0  0
   20.5610   12.6830   11.9150 H   0  0  0  0  0  0  0  0  0  0  0  0
   19.7870   15.0060   11.8140 C   0  0  0  0  0  0  0  0  0  0  0  0
   18.4810   14.8360   12.2970 C   0  0  0  0  0  3  0  0  0  0  0  0
   20.0170   15.6140   10.5650 C   0  0  0  0  0  0  0  0  0  0  0  0
   17.3930   15.2270   11.5210 C   0  0  0  0  0  3  0  0  0  0  0  0
   18.9050   15.9900    9.7930 C   0  0  0  0  0  3  0  0  0  0  0  0
   17.6050   15.7930   10.2660 C   0  0  0  0  0  3  0  0  0  0  0  0
   21.3960   15.8760   10.0310 C   0  0  0  0  0  1  0  0  0  0  0  0
  1  5  1  0
  2  1  1  0
  3  2  1  0
  4  3  1  0
  6  5  1  0
  6  7  1  0
  8  6  1  0
  8  7  1  0
  9 10  2  0
  9  1  1  0
 11 12  1  0
 11  9  1  0
 12 13  2  0
 14 11  1  0
 15 16  2  0
 15 12  1  0
 17 15  1  0
 18 16  1  0
 19 20  1  0
 19 17  2  0
 20 18  2  0
 21 17  1  0
M  RAD  8   2   3   3   3   4   2   5   3   6   2   7   3   8   3  16   2
M  RAD  4  18   2  19   2  20   2  21   2
M  END
>  <vina_score>  (1) 
-6.2300000000000004

>  <pose_id>  (1) 
1

$$$$

     RDKit          3D

 21 22  0  0  0  0  0  0  0  0999 V2000
   22.4250   12.0870   13.4940 N   0  0  0  0  0  0  0  0  0  0  0  0
   23.2310   12.8400   14.4810 C   0  0  0  0  0  2  0  0  0  0  0  0
   23.9950   12.0220   15.5280 C   0  0  0  0  0  2  0  0  0  0  0  0
   25.4100   11.6560   15.1140 C   0  0  0  0  0  1  0  0  0  0  0  0
   23.0640   11.8400   12.1870 C   0  0  0  0  0  2  0  0  0  0  0  0
   23.9670   12.9690   11.7770 C   0  0  0  0  0  3  0  0  0  0  0  0
   24.8630   12.8740   10.5660 C   0  0  0  0  0  2  0  0  0  0  0  0
   23.6460   13.7520   10.5270 C   0  0  0  0  0  2  0  0  0  0  0  0
   21.0350   12.0340   13.6180 C   0  0  0  0  0  0  0  0  0  0  0  0
   20.1580   11.0650   14.6820 S   0  0  0  0  0  0  0  0  0  0  0  0
   20.2620   12.7870   12.7680 N   0  0  0  0  0  0  0  0  0  0  0  0
   20.3950   14.1510   12.5430 C   0  0  0  0  0  0  0  0  0  0  0  0
   21.3410   14.8600   12.8560 O   0  0  0  0  0  0  0  0  0  0  0  0
   19.2900   12.5010   12.8180 H   0  0  0  0  0  0  0  0  0  0  0  0
   19.2090   14.7750   11.9050 C   0  0  0  0  0  0  0  0  0  0  0  0
   17.9810   14.6020   12.5610 C   0  0  0  0  0  3  0  0  0  0  0  0
   19.2830   15.4980   10.6990 C   0  0  0  0  0  0  0  0  0  0  0  0
   16.8110   15.1080   11.9990 C   0  0  0  0  0  3  0  0  0  0  0  0
   18.0900   15.9900   10.1430 C   0  0  0  0  0  3  0  0  0  0  0  0
   16.8650   15.7920   10.7870 C   0  0  0  0  0  3  0  0  0  0  0  0
   20.5810   15.7650    9.9910 C   0  0  0  0  0  1  0  0  0  0  0  0
  1  9  1  0
  1  2  1  0
  2  3  1  0
  4  3  1  0
  5  1  1  0
  6  5  1  0
  7  6  1  0
  8  7  1  0
  8  6  1  0
  9 10  2  0
 11 14  1  0
 11  9  1  0
 12 11  1  0
 12 13  2  0
 15 12  1  0
 15 16  2  0
 17 15  1  0
 18 16  1  0
 19 17  2  0
 19 20  1  0
 20 18  2  0
 21 17  1  0
M  RAD  8   2   3   3   3   4   2   5   3   6   2   7   3   8   3  16   2
M  RAD  4  18   2  19   2  20   2  21   2
M  END
>  <vina_score>  (2) 
-5.9390000000000001

>  <pose_id>  (2) 
2

$$$$

     RDKit          3D

 21 22  0  0  0  0  0  0  0  0999 V2000
   17.9800   14.6150   14.1160 N   0  0  0  0  0  0  0  0  0  0  0  0
   17.5380   13.2960   14.6200 C   0  0  0  0  0  2  0  0  0  0  0  0
   16.6330   12.4650   13.7030 C   0  0  0  0  0  2  0  0  0  0  0  0
   15.2420   13.0450   13.5170 C   0  0  0  0  0  1  0  0  0  0  0  0
   17.6040   15.7830   14.9350 C   0  0  0  0  0  2  0  0  0  0  0  0
   16.5190   15.4550   15.9220 C   0  0  0  0  0  3  0  0  0  0  0  0
   15.8800   16.5150   16.7850 C   0  0  0  0  0  2  0  0  0  0  0  0
   15.1090   15.9150   15.6460 C   0  0  0  0  0  2  0  0  0  0  0  0
   18.3040   14.7760   12.7670 C   0  0  0  0  0  0  0  0  0  0  0  0
   17.3410   15.4860   11.5800 S   0  0  0  0  0  0  0  0  0  0  0  0
   19.4920   14.2660   12.3020 N   0  0  0  0  0  0  0  0  0  0  0  0
   20.7470   14.5100   12.8450 C   0  0  0  0  0  0  0  0  0  0  0  0
   20.9940   15.0020   13.9360 O   0  0  0  0  0  0  0  0  0  0  0  0
   19.5090   14.2590   11.2890 H   0  0  0  0  0  0  0  0  0  0  0  0
   21.8720   14.1740   11.9360 C   0  0  0  0  0  0  0  0  0  0  0  0
   22.6200   13.0330   12.2590 C   0  0  0  0  0  3  0  0  0  0  0  0
   22.1980   14.9500   10.8070 C   0  0  0  0  0  0  0  0  0  0  0  0
   23.7260   12.6810   11.4890 C   0  0  0  0  0  3  0  0  0  0  0  0
   23.3240   14.5850   10.0510 C   0  0  0  0  0  3  0  0  0  0  0  0
   24.0830   13.4620   10.3930 C   0  0  0  0  0  3  0  0  0  0  0  0
   21.3920   16.1440   10.3820 C   0  0  0  0  0  1  0  0  0  0  0  0
  1  2  1  0
  1  5  1  0
  3  2  1  0
  4  3  1  0
  5  6  1  0
  6  7  1  0
  8  6  1  0
  8  7  1  0
  9  1  1  0
 10  9  2  0
 11  9  1  0
 11 12  1  0
 12 13  2  0
 14 11  1  0
 15 16  2  0
 15 12  1  0
 17 15  1  0
 18 16  1  0
 19 20  1  0
 19 17  2  0
 20 18  2  0
 21 17  1  0
M  RAD  8   2   3   3   3   4   2   5   3   6   2   7   3   8   3  16   2
M  RAD  4  18   2  19   2  20   2  21   2
M  END
>  <vina_score>  (3) 
-5.867

>  <pose_id>  (3) 
3

$$$$

     RDKit          3D

 21 22  0  0  0  0  0  0  0  0999 V2000
   17.5860   13.1440   15.5760 N   0  0  0  0  0  0  0  0  0  0  0  0
   18.6680   12.6480   16.4560 C   0  0  0  0  0  2  0  0  0  0  0  0
   18.2500   12.0200   17.7910 C   0  0  0  0  0  2  0  0  0  0  0  0
   19.3260   12.0680   18.8610 C   0  0  0  0  0  1  0  0  0  0  0  0
   16.3360   13.5460   16.2470 C   0  0  0  0  0  2  0  0  0  0  0  0
   16.1270   15.0340   16.2060 C   0  0  0  0  0  3  0  0  0  0  0  0
   14.9720   15.6570   15.4600 C   0  0  0  0  0  2  0  0  0  0  0  0
   14.9680   15.6370   16.9610 C   0  0  0  0  0  2  0  0  0  0  0  0
   17.5830   12.8150   14.2190 C   0  0  0  0  0  0  0  0  0  0  0  0
   16.5330   11.7460   13.4460 S   0  0  0  0  0  0  0  0  0  0  0  0
   18.5510   13.3470   13.4030 N   0  0  0  0  0  0  0  0  0  0  0  0
   18.8640   14.6940   13.2860 C   0  0  0  0  0  0  0  0  0  0  0  0
   18.5210   15.5980   14.0360 O   0  0  0  0  0  0  0  0  0  0  0  0
   18.5680   12.8720   12.5070 H   0  0  0  0  0  0  0  0  0  0  0  0
   19.6500   15.0280   12.0720 C   0  0  0  0  0  0  0  0  0  0  0  0
   21.0390   14.8570   12.1570 C   0  0  0  0  0  3  0  0  0  0  0  0
   19.0570   15.5020   10.8860 C   0  0  0  0  0  0  0  0  0  0  0  0
   21.8540   15.2000   11.0810 C   0  0  0  0  0  3  0  0  0  0  0  0
   19.8970   15.8540    9.8160 C   0  0  0  0  0  3  0  0  0  0  0  0
   21.2830   15.7080    9.9160 C   0  0  0  0  0  3  0  0  0  0  0  0
   17.5710   15.6430   10.7220 C   0  0  0  0  0  1  0  0  0  0  0  0
  1  5  1  0
  1  2  1  0
  2  3  1  0
  3  4  1  0
  6  5  1  0
  6  8  1  0
  7  6  1  0
  7  8  1  0
  9  1  1  0
 10  9  2  0
 11  9  1  0
 12 11  1  0
 12 13  2  0
 14 11  1  0
 15 16  2  0
 15 12  1  0
 17 15  1  0
 18 16  1  0
 19 20  1  0
 19 17  2  0
 20 18  2  0
 21 17  1  0
M  RAD  8   2   3   3   3   4   2   5   3   6   2   7   3   8   3  16   2
M  RAD  4  18   2  19   2  20   2  21   2
M  END
>  <vina_score>  (4) 
-5.7460000000000004

>  <pose_id>  (4) 
4

$$$$

     RDKit          3D

 21 22  0  0  0  0  0  0  0  0999 V2000
   17.6970   15.6140   12.6870 N   0  0  0  0  0  0  0  0  0  0  0  0
   17.8570   16.4670   11.4890 C   0  0  0  0  0  2  0  0  0  0  0  0
   18.0340   15.7550   10.1430 C   0  0  0  0  0  2  0  0  0  0  0  0
   19.3450   16.0690    9.4440 C   0  0  0  0  0  1  0  0  0  0  0  0
   16.3310   15.1330   12.9650 C   0  0  0  0  0  2  0  0  0  0  0  0
   16.3130   13.6810   13.3540 C   0  0  0  0  0  3  0  0  0  0  0  0
   16.0810   13.2400   14.7790 C   0  0  0  0  0  2  0  0  0  0  0  0
   15.0050   13.0410   13.7520 C   0  0  0  0  0  2  0  0  0  0  0  0
   18.6500   15.6560   13.7080 C   0  0  0  0  0  0  0  0  0  0  0  0
   18.4270   16.2540   15.2670 S   0  0  0  0  0  0  0  0  0  0  0  0
   19.9290   15.2310   13.4410 N   0  0  0  0  0  0  0  0  0  0  0  0
   20.2790   14.0090   12.8840 C   0  0  0  0  0  0  0  0  0  0  0  0
   19.5360   13.2160   12.3230 O   0  0  0  0  0  0  0  0  0  0  0  0
   20.5620   15.5080   14.1840 H   0  0  0  0  0  0  0  0  0  0  0  0
   21.7070   13.6470   13.0710 C   0  0  0  0  0  0  0  0  0  0  0  0
   22.0120   12.8590   14.1900 C   0  0  0  0  0  3  0  0  0  0  0  0
   22.7220   14.0710   12.1930 C   0  0  0  0  0  0  0  0  0  0  0  0
   23.3350   12.5230   14.4690 C   0  0  0  0  0  3  0  0  0  0  0  0
   24.0510   13.7310   12.4980 C   0  0  0  0  0  3  0  0  0  0  0  0
   24.3530   12.9680   13.6290 C   0  0  0  0  0  3  0  0  0  0  0  0
   22.4410   14.8620   10.9480 C   0  0  0  0  0  1  0  0  0  0  0  0
  1  5  1  0
  1  9  1  0
  2  1  1  0
  3  2  1  0
  4  3  1  0
  5  6  1  0
  6  8  1  0
  6  7  1  0
  8  7  1  0
  9 10  2  0
 11  9  1  0
 11 14  1  0
 12 15  1  0
 12 11  1  0
 13 12  2  0
 15 16  2  0
 16 18  1  0
 17 19  2  0
 17 15  1  0
 19 20  1  0
 20 18  2  0
 21 17  1  0
M  RAD  8   2   3   3   3   4   2   5   3   6   2   7   3   8   3  16   2
M  RAD  4  18   2  19   2  20   2  21   2
M  END
>  <vina_score>  (5) 
-5.7430000000000003

>  <pose_id>  (5) 
5

$$$$
