
     RDKit          3D

 21 22  0  0  1  0  0  0  0  0999 V2000
   18.9500   11.3620   21.6810 C   0  0  0  0  0  0  0  0  0  0  0  0
   18.6480   12.0970   20.5290 C   0  0  0  0  0  3  0  0  0  0  0  0
   19.4540   11.9980   19.3890 C   0  0  0  0  0  3  0  0  0  0  0  0
   20.5790   11.1730   19.3880 C   0  0  0  0  0  0  0  0  0  0  0  0
   20.8620   10.4130   20.5280 C   0  0  0  0  0  3  0  0  0  0  0  0
   20.0610   10.5120   21.6730 C   0  0  0  0  0  3  0  0  0  0  0  0
   18.0610   11.5020   22.8720 C   0  0  0  0  0  0  0  0  0  0  0  0
   18.5010   11.9830   23.9140 O   0  0  0  0  0  0  0  0  0  0  0  0
   16.6270   11.0540   22.7660 C   0  0  0  0  0  1  0  0  0  0  0  0
   21.4070   10.9940   18.2590 N   0  0  0  0  0  0  0  0  0  0  0  0
   21.1800   10.2710   17.0940 C   0  0  0  0  0  0  0  0  0  0  0  0
   19.6430   10.0620   16.4340 S   0  0  0  0  0  0  0  0  0  0  0  0
   22.3870    9.8100   16.4930 N   0  0  0  0  0  0  0  0  0  0  0  0
   23.6590    9.7200   17.2630 C   0  0  0  0  0  3  0  0  0  0  0  0
   22.3970    9.2380   15.1150 C   0  0  0  0  0  3  0  0  0  0  0  0
   24.8930    9.6920   16.3560 C   0  0  0  0  0  2  0  0  0  0  0  0
   23.4600    8.1490   14.9310 C   0  0  0  0  0  2  0  0  0  0  0  0
   24.8690    8.5840   15.3120 C   0  0  0  0  0  2  0  0  0  0  0  0
   22.1470   11.6750   18.1580 H   0  0  0  0  0  0  0  0  0  0  0  0
   23.6370    8.5380   18.2400 C   0  0  0  0  0  1  0  0  0  0  0  0
   22.5360   10.3480   14.0660 C   0  0  0  0  0  1  0  0  0  0  0  0
  1  7  1  0
  2  1  1  0
  3  2  2  0
  4  3  1  0
  4  5  2  0
  5  6  1  0
  6  1  2  0
  7  8  2  0
  9  7  1  0
 10  4  1  0
 11 10  1  0
 12 11  2  0
 13 11  1  0
 13 14  1  0
 14 20  1  0
 15 21  1  0
 15 13  1  0
 16 14  1  0
 17 15  1  0
 17 18  1  0
 18 16  1  0
 19 10  1  0
M  RAD  8   2   2   3   2   5   2   6   2   9   2  14   2  15   2  16   3
M  RAD  4  17   3  18   3  20   2  21   2
M  END
>  <vina_score>  (1) 
-6.6020000000000003

>  <pose_id>  (1) 
1

$$$$

     RDKit          3D

 21 22  0  0  1  0  0  0  0  0999 V2000
   23.1990   12.7100   12.3400 C   0  0  0  0  0  0  0  0  0  0  0  0
   22.9850   12.1060   13.5840 C   0  0  0  0  0  3  0  0  0  0  0  0
   21.8890   12.4720   14.3740 C   0  0  0  0  0  3  0  0  0  0  0  0
   20.9990   13.4540   13.9380 C   0  0  0  0  0  0  0  0  0  0  0  0
   21.1940   14.0330   12.6800 C   0  0  0  0  0  3  0  0  0  0  0  0
   22.2920   13.6740   11.8880 C   0  0  0  0  0  3  0  0  0  0  0  0
   24.3830   12.2870   11.5350 C   0  0  0  0  0  0  0  0  0  0  0  0
   24.9010   11.1900   11.7340 O   0  0  0  0  0  0  0  0  0  0  0  0
   24.9160   13.2200   10.4800 C   0  0  0  0  0  1  0  0  0  0  0  0
   19.8510   13.8370   14.6650 N   0  0  0  0  0  0  0  0  0  0  0  0
   18.5820   13.2690   14.6900 C   0  0  0  0  0  0  0  0  0  0  0  0
   18.3150   11.6210   14.4620 S   0  0  0  0  0  0  0  0  0  0  0  0
   17.5660   14.2160   15.0090 N   0  0  0  0  0  0  0  0  0  0  0  0
   17.7920   15.6820   14.8670 C   0  0  0  0  0  3  0  0  0  0  0  0
   16.1780   13.7820   15.3380 C   0  0  0  0  0  3  0  0  0  0  0  0
   16.8100   16.5100   15.7020 C   0  0  0  0  0  2  0  0  0  0  0  0
   15.1170   14.7940   14.8920 C   0  0  0  0  0  2  0  0  0  0  0  0
   15.3450   16.2050   15.4170 C   0  0  0  0  0  2  0  0  0  0  0  0
   20.0270   14.4330   15.4620 H   0  0  0  0  0  0  0  0  0  0  0  0
   17.7930   16.1060   13.3940 C   0  0  0  0  0  1  0  0  0  0  0  0
   16.0510   13.4460   16.8290 C   0  0  0  0  0  1  0  0  0  0  0  0
  1  2  1  0
  2  3  2  0
  4  3  1  0
  4 10  1  0
  5  4  2  0
  6  1  2  0
  6  5  1  0
  7  8  2  0
  7  1  1  0
  9  7  1  0
 10 11  1  0
 10 19  1  0
 11 13  1  0
 12 11  2  0
 13 15  1  0
 14 20  1  0
 14 13  1  0
 14 16  1  0
 15 21  1  0
 17 15  1  0
 17 18  1  0
 18 16  1  0
M  RAD  8   2   2   3   2   5   2   6   2   9   2  14   2  15   2  16   3
M  RAD  4  17   3  18   3  20   2  21   2
M  END
>  <vina_score>  (2) 
-6.3550000000000004

>  <pose_id>  (2) 
2

$$$$

     RDKit          3D

 21 22  0  0  1  0  0  0  0  0999 V2000
   24.7770    9.4760   16.6380 C   0  0  0  0  0  0  0  0  0  0  0  0
   24.4430    8.2520   17.2270 C   0  0  0  0  0  3  0  0  0  0  0  0
   23.2780    8.1240   17.9930 C   0  0  0  0  0  3  0  0  0  0  0  0
   22.4380    9.2200   18.1910 C   0  0  0  0  0  0  0  0  0  0  0  0
   22.7550   10.4350   17.5750 C   0  0  0  0  0  3  0  0  0  0  0  0
   23.9220   10.5690   16.8110 C   0  0  0  0  0  3  0  0  0  0  0  0
   26.0310    9.5630   15.8320 C   0  0  0  0  0  0  0  0  0  0  0  0
   26.4780    8.5580   15.2820 O   0  0  0  0  0  0  0  0  0  0  0  0
   26.7220   10.8950   15.7010 C   0  0  0  0  0  1  0  0  0  0  0  0
   21.2280    9.1480   18.9140 N   0  0  0  0  0  0  0  0  0  0  0  0
   19.9150    9.1770   18.4570 C   0  0  0  0  0  0  0  0  0  0  0  0
   19.4580    8.5700   16.9530 S   0  0  0  0  0  0  0  0  0  0  0  0
   19.0100    9.6930   19.4290 N   0  0  0  0  0  0  0  0  0  0  0  0
   19.4830   10.5140   20.5790 C   0  0  0  0  0  3  0  0  0  0  0  0
   17.5330    9.5790   19.2510 C   0  0  0  0  0  3  0  0  0  0  0  0
   18.4760   10.5420   21.7340 C   0  0  0  0  0  2  0  0  0  0  0  0
   16.7680   10.7590   19.8610 C   0  0  0  0  0  2  0  0  0  0  0  0
   17.0850   11.0120   21.3290 C   0  0  0  0  0  2  0  0  0  0  0  0
   21.3080    8.7690   19.8470 H   0  0  0  0  0  0  0  0  0  0  0  0
   19.8820   11.9240   20.1310 C   0  0  0  0  0  1  0  0  0  0  0  0
   17.0230    8.2350   19.7840 C   0  0  0  0  0  1  0  0  0  0  0  0
  1  6  2  0
  1  2  1  0
  2  3  2  0
  3  4  1  0
  4 10  1  0
  5  4  2  0
  6  5  1  0
  7  1  1  0
  8  7  2  0
  9  7  1  0
 10 19  1  0
 11 10  1  0
 11 13  1  0
 12 11  2  0
 13 14  1  0
 14 20  1  0
 14 16  1  0
 15 13  1  0
 15 21  1  0
 15 17  1  0
 17 18  1  0
 18 16  1  0
M  RAD  8   2   2   3   2   5   2   6   2   9   2  14   2  15   2  16   3
M  RAD  4  17   3  18   3  20   2  21   2
M  END
>  <vina_score>  (3) 
-6.1900000000000004

>  <pose_id>  (3) 
3

$$$$

     RDKit          3D

 21 22  0  0  1  0  0  0  0  0999 V2000
   16.5650   13.9560   13.7590 C   0  0  0  0  0  0  0  0  0  0  0  0
   15.9520   13.0450   14.6270 C   0  0  0  0  0  3  0  0  0  0  0  0
   16.6270   12.5760   15.7600 C   0  0  0  0  0  3  0  0  0  0  0  0
   17.9270   13.0010   16.0340 C   0  0  0  0  0  0  0  0  0  0  0  0
   18.5270   13.9370   15.1850 C   0  0  0  0  0  3  0  0  0  0  0  0
   17.8570   14.4060   14.0470 C   0  0  0  0  0  3  0  0  0  0  0  0
   15.8040   14.4260   12.5620 C   0  0  0  0  0  0  0  0  0  0  0  0
   14.6940   13.9570   12.3180 O   0  0  0  0  0  0  0  0  0  0  0  0
   16.4170   15.4790   11.6780 C   0  0  0  0  0  1  0  0  0  0  0  0
   18.6460   12.6020   17.1820 N   0  0  0  0  0  0  0  0  0  0  0  0
   19.2930   11.4020   17.4540 C   0  0  0  0  0  0  0  0  0  0  0  0
   19.9980   10.4520   16.2550 S   0  0  0  0  0  0  0  0  0  0  0  0
   19.3600   11.1230   18.8500 N   0  0  0  0  0  0  0  0  0  0  0  0
   18.4520   11.7900   19.8250 C   0  0  0  0  0  3  0  0  0  0  0  0
   20.2230   10.0290   19.3810 C   0  0  0  0  0  3  0  0  0  0  0  0
   18.9940   11.7450   21.2570 C   0  0  0  0  0  2  0  0  0  0  0  0
   19.6400    9.3650   20.6330 C   0  0  0  0  0  2  0  0  0  0  0  0
   19.3080   10.3400   21.7560 C   0  0  0  0  0  2  0  0  0  0  0  0
   18.9580   13.3580   17.7760 H   0  0  0  0  0  0  0  0  0  0  0  0
   17.0270   11.2330   19.7330 C   0  0  0  0  0  1  0  0  0  0  0  0
   21.6530   10.5290   19.6180 C   0  0  0  0  0  1  0  0  0  0  0  0
  1  6  2  0
  1  2  1  0
  2  3  2  0
  3  4  1  0
  4 10  1  0
  5  4  2  0
  6  5  1  0
  7  1  1  0
  8  7  2  0
  9  7  1  0
 10 11  1  0
 10 19  1  0
 11 13  1  0
 12 11  2  0
 13 15  1  0
 13 14  1  0
 14 20  1  0
 14 16  1  0
 15 21  1  0
 15 17  1  0
 16 18  1  0
 17 18  1  0
M  RAD  8   2   2   3   2   5   2   6   2   9   2  14   2  15   2  16   3
M  RAD  4  17   3  18   3  20   2  21   2
M  END
>  <vina_score>  (4) 
-6.1699999999999999

>  <pose_id>  (4) 
4

$$$$

     RDKit          3D

 21 22  0  0  1  0  0  0  0  0999 V2000
   22.6010   14.3880   11.1680 C   0  0  0  0  0  0  0  0  0  0  0  0
   22.1330   14.0560   12.4440 C   0  0  0  0  0  3  0  0  0  0  0  0
   22.5990   12.9090   13.0980 C   0  0  0  0  0  3  0  0  0  0  0  0
   23.5290   12.0720   12.4810 C   0  0  0  0  0  0  0  0  0  0  0  0
   24.0210   12.4220   11.2190 C   0  0  0  0  0  3  0  0  0  0  0  0
   23.5550   13.5660   10.5590 C   0  0  0  0  0  3  0  0  0  0  0  0
   22.0730   15.6210   10.5110 C   0  0  0  0  0  0  0  0  0  0  0  0
   22.8460   16.5130   10.1670 O   0  0  0  0  0  0  0  0  0  0  0  0
   20.5910   15.7420   10.2760 C   0  0  0  0  0  1  0  0  0  0  0  0
   24.0710   10.9270   13.1010 N   0  0  0  0  0  0  0  0  0  0  0  0
   23.4660    9.9970   13.9400 C   0  0  0  0  0  0  0  0  0  0  0  0
   21.8350    9.5910   13.8260 S   0  0  0  0  0  0  0  0  0  0  0  0
   24.3920    9.3820   14.8320 N   0  0  0  0  0  0  0  0  0  0  0  0
   25.7160    9.9970   15.1300 C   0  0  0  0  0  3  0  0  0  0  0  0
   24.0140    8.1840   15.6360 C   0  0  0  0  0  3  0  0  0  0  0  0
   26.7230    8.9820   15.6820 C   0  0  0  0  0  2  0  0  0  0  0  0
   24.7170    8.1360   16.9970 C   0  0  0  0  0  2  0  0  0  0  0  0
   26.2350    8.2350   16.9160 C   0  0  0  0  0  2  0  0  0  0  0  0
   24.9280   10.5820   12.6910 H   0  0  0  0  0  0  0  0  0  0  0  0
   25.5710   11.2180   16.0460 C   0  0  0  0  0  1  0  0  0  0  0  0
   24.2390    6.8970   14.8350 C   0  0  0  0  0  1  0  0  0  0  0  0
  1  2  1  0
  2  3  2  0
  4  3  1  0
  4 10  1  0
  5  4  2  0
  6  1  2  0
  6  5  1  0
  7  1  1  0
  8  7  2  0
  9  7  1  0
 10 11  1  0
 11 13  1  0
 12 11  2  0
 13 14  1  0
 13 15  1  0
 14 16  1  0
 14 20  1  0
 15 21  1  0
 15 17  1  0
 16 18  1  0
 18 17  1  0
 19 10  1  0
M  RAD  8   2   2   3   2   5   2   6   2   9   2  14   2  15   2  16   3
M  RAD  4  17   3  18   3  20   2  21   2
M  END
>  <vina_score>  (5) 
-6.0449999999999999

>  <pose_id>  (5) 
5

$$$$
