
     RDKit          3D

 23 25  0  0  1  0  0  0  0  0999 V2000
   16.3780   12.6560   16.1690 N   0  0  0  0  0  0  0  0  0  0  0  0
   16.2310   12.1130   14.8180 C   0  0  0  0  0  2  0  0  0  0  0  0
   15.6830   13.2890   14.0190 C   0  0  0  0  0  2  0  0  0  0  0  0
   16.2190   14.5470   14.7300 C   0  0  1  0  0  0  0  0  0  0  0  0
   15.0340   15.4400   15.1400 C   0  0  0  0  0  1  0  0  0  0  0  0
   16.9340   14.0050   15.9810 C   0  0  0  0  0  2  0  0  0  0  0  0
   17.1740   11.8060   17.0740 C   0  0  0  0  0  3  0  0  0  0  0  0
   18.5760   12.3880   17.3010 C   0  0  0  0  0  1  0  0  0  0  0  0
   16.4920   11.6500   18.4420 C   0  0  0  0  0  1  0  0  0  0  0  0
   17.2000   15.3460   13.8440 C   0  0  0  0  0  0  0  0  0  0  0  0
   17.6620   16.4170   14.2260 O   0  0  0  0  0  0  0  0  0  0  0  0
   17.4990   14.7280   12.6380 N   0  0  0  0  0  0  0  0  0  0  0  0
   17.0530   13.8380   12.4800 H   0  0  0  0  0  0  0  0  0  0  0  0
   18.3390   15.1850   11.5940 C   0  0  0  0  0  0  0  0  0  0  0  0
   17.8260   15.8050   10.4480 C   0  0  0  0  0  3  0  0  0  0  0  0
   19.7370   14.9960   11.6910 C   0  0  0  0  0  0  0  0  0  0  0  0
   18.6630   16.2040    9.4010 C   0  0  0  0  0  3  0  0  0  0  0  0
   20.5730   15.3890   10.6170 C   0  0  0  0  0  0  0  0  0  0  0  0
   20.4380   14.3360   12.8600 C   0  0  0  0  0  2  0  0  0  0  0  0
   20.0310   15.9870    9.4790 C   0  0  0  0  0  3  0  0  0  0  0  0
   22.0510   15.1020   10.7020 C   0  0  0  0  0  2  0  0  0  0  0  0
   21.7280   15.0670   13.2460 C   0  0  0  0  0  2  0  0  0  0  0  0
   22.6030   15.5020   12.0660 C   0  0  0  0  0  2  0  0  0  0  0  0
  1  7  1  0
  2  1  1  0
  3  4  1  0
  3  2  1  0
  4  5  1  1
  4  6  1  0
  6  1  1  0
  7  8  1  0
  7  9  1  0
 10 11  2  0
 10  4  1  0
 12 10  1  0
 13 12  1  0
 14 16  1  0
 14 12  1  0
 15 14  2  0
 16 19  1  0
 17 20  2  0
 17 15  1  0
 18 21  1  0
 18 16  2  0
 19 22  1  0
 20 18  1  0
 21 23  1  0
 23 22  1  0
M  RAD  8   2   3   3   3   5   2   6   3   7   2   8   2   9   2  15   2
M  RAD  6  17   2  19   3  20   2  21   3  22   3  23   3
M  END
>  <vina_score>  (1) 
-7.4119999999999999

>  <pose_id>  (1) 
1

$$$$

     RDKit          3D

 23 25  0  0  1  0  0  0  0  0999 V2000
   16.6410   14.3100   14.6050 N   0  0  0  0  0  0  0  0  0  0  0  0
   15.6500   13.2910   14.2530 C   0  0  0  0  0  2  0  0  0  0  0  0
   16.4470   11.9930   14.2850 C   0  0  0  0  0  2  0  0  0  0  0  0
   17.5740   12.2350   15.3070 C   0  0  1  0  0  0  0  0  0  0  0  0
   18.9350   11.9960   14.6270 C   0  0  0  0  0  1  0  0  0  0  0  0
   17.4280   13.7170   15.6980 C   0  0  0  0  0  2  0  0  0  0  0  0
   16.0590   15.6240   14.9370 C   0  0  0  0  0  3  0  0  0  0  0  0
   14.8080   15.4760   15.8150 C   0  0  0  0  0  1  0  0  0  0  0  0
   17.0660   16.5120   15.6820 C   0  0  0  0  0  1  0  0  0  0  0  0
   17.4400   11.3270   16.5500 C   0  0  0  0  0  0  0  0  0  0  0  0
   17.6240   10.1160   16.4670 O   0  0  0  0  0  0  0  0  0  0  0  0
   17.1250   12.0120   17.7150 N   0  0  0  0  0  0  0  0  0  0  0  0
   17.0270   13.0100   17.6220 H   0  0  0  0  0  0  0  0  0  0  0  0
   16.9150   11.4950   19.0160 C   0  0  0  0  0  0  0  0  0  0  0  0
   15.6720   10.9900   19.4200 C   0  0  0  0  0  3  0  0  0  0  0  0
   17.9760   11.5040   19.9500 C   0  0  0  0  0  0  0  0  0  0  0  0
   15.4640   10.5300   20.7240 C   0  0  0  0  0  3  0  0  0  0  0  0
   17.7480   11.0510   21.2730 C   0  0  0  0  0  0  0  0  0  0  0  0
   19.3690   12.0240   19.6670 C   0  0  0  0  0  2  0  0  0  0  0  0
   16.4940   10.5710   21.6530 C   0  0  0  0  0  3  0  0  0  0  0  0
   18.8680   11.1470   22.2790 C   0  0  0  0  0  2  0  0  0  0  0  0
   20.4550   11.1220   20.2640 C   0  0  0  0  0  2  0  0  0  0  0  0
   20.1730   10.6280   21.6860 C   0  0  0  0  0  2  0  0  0  0  0  0
  1  7  1  0
  1  6  1  0
  2  3  1  0
  2  1  1  0
  3  4  1  0
  4  5  1  6
  4  6  1  0
  4 10  1  0
  7  9  1  0
  7  8  1  0
 10 12  1  0
 11 10  2  0
 12 14  1  0
 13 12  1  0
 14 15  2  0
 14 16  1  0
 15 17  1  0
 16 18  2  0
 17 20  2  0
 18 20  1  0
 18 21  1  0
 19 16  1  0
 19 22  1  0
 22 23  1  0
 23 21  1  0
M  RAD  8   2   3   3   3   5   2   6   3   7   2   8   2   9   2  15   2
M  RAD  6  17   2  19   3  20   2  21   3  22   3  23   3
M  END
>  <vina_score>  (2) 
-7.0209999999999999

>  <pose_id>  (2) 
2

$$$$

     RDKit          3D

 23 25  0  0  1  0  0  0  0  0999 V2000
   24.0290    9.1130   16.1650 N   0  0  0  0  0  0  0  0  0  0  0  0
   22.5960    9.4020   16.0940 C   0  0  0  0  0  2  0  0  0  0  0  0
   22.5490   10.8710   15.6960 C   0  0  0  0  0  2  0  0  0  0  0  0
   23.8400   11.1150   14.8910 C   0  0  1  0  0  0  0  0  0  0  0  0
   24.6410   12.2530   15.5490 C   0  0  0  0  0  1  0  0  0  0  0  0
   24.6150    9.7890   14.9970 C   0  0  0  0  0  2  0  0  0  0  0  0
   24.3480    7.6750   16.2410 C   0  0  0  0  0  3  0  0  0  0  0  0
   25.5990    7.3340   15.4180 C   0  0  0  0  0  1  0  0  0  0  0  0
   24.5920    7.2290   17.6910 C   0  0  0  0  0  1  0  0  0  0  0  0
   23.5500   11.4610   13.4130 C   0  0  0  0  0  0  0  0  0  0  0  0
   23.0970   10.6140   12.6470 O   0  0  0  0  0  0  0  0  0  0  0  0
   23.8260   12.7790   13.0790 N   0  0  0  0  0  0  0  0  0  0  0  0
   24.1740   13.3560   13.8280 H   0  0  0  0  0  0  0  0  0  0  0  0
   23.6920   13.4200   11.8240 C   0  0  0  0  0  0  0  0  0  0  0  0
   24.5980   13.1990   10.7790 C   0  0  0  0  0  3  0  0  0  0  0  0
   22.6300   14.3290   11.6150 C   0  0  0  0  0  0  0  0  0  0  0  0
   24.4850   13.8780    9.5620 C   0  0  0  0  0  3  0  0  0  0  0  0
   22.5350   15.0240   10.3840 C   0  0  0  0  0  0  0  0  0  0  0  0
   21.5790   14.6790   12.6470 C   0  0  0  0  0  2  0  0  0  0  0  0
   23.4630   14.7970    9.3680 C   0  0  0  0  0  3  0  0  0  0  0  0
   21.4450   16.0520   10.2100 C   0  0  0  0  0  2  0  0  0  0  0  0
   20.1770   14.7720   12.0350 C   0  0  0  0  0  2  0  0  0  0  0  0
   20.1050   15.5080   10.6940 C   0  0  0  0  0  2  0  0  0  0  0  0
  1  7  1  0
  2  1  1  0
  3  2  1  0
  4  6  1  0
  4  5  1  1
  4  3  1  0
  6  1  1  0
  7  9  1  0
  8  7  1  0
 10  4  1  0
 11 10  2  0
 12 10  1  0
 12 13  1  0
 14 12  1  0
 15 14  2  0
 16 14  1  0
 16 19  1  0
 17 15  1  0
 18 16  2  0
 20 17  2  0
 20 18  1  0
 21 18  1  0
 21 23  1  0
 22 19  1  0
 23 22  1  0
M  RAD  8   2   3   3   3   5   2   6   3   7   2   8   2   9   2  15   2
M  RAD  6  17   2  19   3  20   2  21   3  22   3  23   3
M  END
>  <vina_score>  (3) 
-6.9260000000000002

>  <pose_id>  (3) 
3

$$$$

     RDKit          3D

 23 25  0  0  1  0  0  0  0  0999 V2000
   18.8550   13.2490   13.8010 N   0  0  0  0  0  0  0  0  0  0  0  0
   18.9430   14.1050   14.9850 C   0  0  0  0  0  2  0  0  0  0  0  0
   17.6330   13.8360   15.7160 C   0  0  0  0  0  2  0  0  0  0  0  0
   17.2410   12.3970   15.3310 C   0  0  1  0  0  0  0  0  0  0  0  0
   15.8380   12.4050   14.6980 C   0  0  0  0  0  1  0  0  0  0  0  0
   18.2930   11.9780   14.2870 C   0  0  0  0  0  2  0  0  0  0  0  0
   20.1300   13.0960   13.0750 C   0  0  0  0  0  3  0  0  0  0  0  0
   21.2670   13.8540   13.7750 C   0  0  0  0  0  1  0  0  0  0  0  0
   20.5370   11.6190   12.9620 C   0  0  0  0  0  1  0  0  0  0  0  0
   17.2670   11.4400   16.5440 C   0  0  0  0  0  0  0  0  0  0  0  0
   17.5110   10.2460   16.3970 O   0  0  0  0  0  0  0  0  0  0  0  0
   17.0170   12.0650   17.7580 N   0  0  0  0  0  0  0  0  0  0  0  0
   16.8560   13.0580   17.7130 H   0  0  0  0  0  0  0  0  0  0  0  0
   16.9510   11.4910   19.0510 C   0  0  0  0  0  0  0  0  0  0  0  0
   15.7730   10.9190   19.5470 C   0  0  0  0  0  3  0  0  0  0  0  0
   18.0940   11.5110   19.8820 C   0  0  0  0  0  0  0  0  0  0  0  0
   15.7060   10.4030   20.8450 C   0  0  0  0  0  3  0  0  0  0  0  0
   18.0100   11.0010   21.2000 C   0  0  0  0  0  0  0  0  0  0  0  0
   19.4330   12.1000   19.4920 C   0  0  0  0  0  2  0  0  0  0  0  0
   16.8170   10.4540   21.6750 C   0  0  0  0  0  3  0  0  0  0  0  0
   19.2150   11.1070   22.1010 C   0  0  0  0  0  2  0  0  0  0  0  0
   20.6050   11.2240   19.9490 C   0  0  0  0  0  2  0  0  0  0  0  0
   20.4780   10.6670   21.3700 C   0  0  0  0  0  2  0  0  0  0  0  0
  1  6  1  0
  1  2  1  0
  2  3  1  0
  4  5  1  6
  4  3  1  0
  4 10  1  0
  6  4  1  0
  7  8  1  0
  7  1  1  0
  9  7  1  0
 10 12  1  0
 11 10  2  0
 12 14  1  0
 13 12  1  0
 14 15  2  0
 14 16  1  0
 15 17  1  0
 16 18  2  0
 17 20  2  0
 18 20  1  0
 18 21  1  0
 19 16  1  0
 19 22  1  0
 22 23  1  0
 23 21  1  0
M  RAD  8   2   3   3   3   5   2   6   3   7   2   8   2   9   2  15   2
M  RAD  6  17   2  19   3  20   2  21   3  22   3  23   3
M  END
>  <vina_score>  (4) 
-6.8470000000000004

>  <pose_id>  (4) 
4

$$$$

     RDKit          3D

 23 25  0  0  1  0  0  0  0  0999 V2000
   16.9550   14.8650   14.4030 N   0  0  0  0  0  0  0  0  0  0  0  0
   18.1440   15.6970   14.2140 C   0  0  0  0  0  2  0  0  0  0  0  0
   19.2700   14.8450   14.7880 C   0  0  0  0  0  2  0  0  0  0  0  0
   18.8120   13.3860   14.5980 C   0  0  1  0  0  0  0  0  0  0  0  0
   18.7980   12.6770   15.9640 C   0  0  0  0  0  1  0  0  0  0  0  0
   17.3800   13.5020   14.0440 C   0  0  0  0  0  2  0  0  0  0  0  0
   15.7710   15.3340   13.6600 C   0  0  0  0  0  3  0  0  0  0  0  0
   16.1170   16.5120   12.7390 C   0  0  0  0  0  1  0  0  0  0  0  0
   15.1690   14.2130   12.7990 C   0  0  0  0  0  1  0  0  0  0  0  0
   19.7170   12.6150   13.6120 C   0  0  0  0  0  0  0  0  0  0  0  0
   19.2330   11.9910   12.6710 O   0  0  0  0  0  0  0  0  0  0  0  0
   21.0720   12.7240   13.8890 N   0  0  0  0  0  0  0  0  0  0  0  0
   21.3100   13.2900   14.6870 H   0  0  0  0  0  0  0  0  0  0  0  0
   22.1650   12.1380   13.2050 C   0  0  0  0  0  0  0  0  0  0  0  0
   22.5540   10.8110   13.4300 C   0  0  0  0  0  3  0  0  0  0  0  0
   22.9060   12.9110   12.2830 C   0  0  0  0  0  0  0  0  0  0  0  0
   23.6660   10.2610   12.7880 C   0  0  0  0  0  3  0  0  0  0  0  0
   24.0420   12.3490   11.6510 C   0  0  0  0  0  0  0  0  0  0  0  0
   22.6160   14.3580   11.9420 C   0  0  0  0  0  2  0  0  0  0  0  0
   24.4170   11.0300   11.9090 C   0  0  0  0  0  3  0  0  0  0  0  0
   24.8700   13.2150   10.7360 C   0  0  0  0  0  2  0  0  0  0  0  0
   22.7550   14.6350   10.4410 C   0  0  0  0  0  2  0  0  0  0  0  0
   23.9790   13.9970    9.7770 C   0  0  0  0  0  2  0  0  0  0  0  0
  2  1  1  0
  2  3  1  0
  4  3  1  0
  4  5  1  1
  6  1  1  0
  6  4  1  0
  7  1  1  0
  8  7  1  0
  9  7  1  0
 10 12  1  0
 10  4  1  0
 11 10  2  0
 12 13  1  0
 14 15  2  0
 14 12  1  0
 16 14  1  0
 17 15  1  0
 18 20  1  0
 18 16  2  0
 19 16  1  0
 20 17  2  0
 21 18  1  0
 22 19  1  0
 23 22  1  0
 23 21  1  0
M  RAD  8   2   3   3   3   5   2   6   3   7   2   8   2   9   2  15   2
M  RAD  6  17   2  19   3  20   2  21   3  22   3  23   3
M  END
>  <vina_score>  (5) 
-6.7519999999999998

>  <pose_id>  (5) 
5

$$$$
