
     RDKit          3D

 44 46  0  0  1  0  0  0  0  0999 V2000
   24.8710   12.8570   14.3280 C   0  0  0  0  0  2  0  0  0  0  0  0
   23.6880   13.0760   13.5360 O   0  0  0  0  0  0  0  0  0  0  0  0
   23.8980   13.1860   12.1990 C   0  0  0  0  0  0  0  0  0  0  0  0
   24.9200   12.9120   11.5900 O   0  0  0  0  0  0  0  0  0  0  0  0
   22.6660   13.7530   11.6090 C   0  0  0  0  0  3  0  0  0  0  0  0
   21.6590   14.1560   12.3990 C   0  0  0  0  0  3  0  0  0  0  0  0
   20.3650   14.6390   11.8940 C   0  0  0  0  0  0  0  0  0  0  0  0
   17.9570   14.8480   12.2430 C   0  0  0  0  0  0  0  0  0  0  0  0
   19.2180   14.4230   12.6770 C   0  0  0  0  0  3  0  0  0  0  0  0
   17.8570   15.5270   11.0220 C   0  0  0  0  0  0  0  0  0  0  0  0
   18.9870   15.7670   10.2440 C   0  0  0  0  0  3  0  0  0  0  0  0
   20.2380   15.3290   10.6810 C   0  0  0  0  0  3  0  0  0  0  0  0
   16.7920   14.6670   12.9390 O   0  0  0  0  0  0  0  0  0  0  0  0
   16.3310   13.3320   13.0850 C   0  0  0  0  0  1  0  0  0  0  0  0
   16.6300   15.9510   10.5880 O   0  0  0  0  0  0  0  0  0  0  0  0
   16.3990   16.7710   11.0530 H   0  0  0  0  0  0  0  0  0  0  0  0
   24.7070   11.6010   15.1990 C   0  0  0  0  0  0  0  0  0  0  0  0
   24.1700   10.5300   14.4120 O   0  0  0  0  0  0  0  0  0  0  0  0
   26.0640   11.1870   15.8190 C   0  0  0  0  0  0  0  0  0  0  0  0
   23.8020    9.3760   15.1780 C   0  0  0  0  0  0  0  0  0  0  0  0
   26.1360    9.6630   16.0560 C   0  0  0  0  0  0  0  0  0  0  0  0
   24.7360    9.1430   16.3950 C   0  0  0  0  0  0  0  0  0  0  0  0
   26.2200   11.8920   17.0570 O   0  0  0  0  0  0  0  0  0  0  0  0
   25.3250   11.9700   17.4490 H   0  0  0  0  0  0  0  0  0  0  0  0
   22.4700    9.4950   15.6650 O   0  0  0  0  0  0  0  0  0  0  0  0
   21.4250    9.2990   14.7090 C   0  0  1  0  0  0  0  0  0  0  0  0
   20.1960    9.2170   15.4630 O   0  0  0  0  0  0  0  0  0  0  0  0
   21.1620   10.4840   13.7570 C   0  0  0  0  0  3  0  0  0  0  0  0
   19.6980   10.5680   15.6610 C   0  0  0  0  0  3  0  0  0  0  0  0
   20.4140   11.4710   14.6440 C   0  0  0  0  0  3  0  0  0  0  0  0
   21.5850    7.9390   13.9820 C   0  0  0  0  0  2  0  0  0  0  0  0
   22.1580    8.0590   12.6780 O   0  0  0  0  0  0  0  0  0  0  0  0
   22.9610    8.6120   12.7740 H   0  0  0  0  0  0  0  0  0  0  0  0
   20.3140   10.1120   12.6540 O   0  0  0  0  0  0  0  0  0  0  0  0
   20.1240   10.9090   12.1280 H   0  0  0  0  0  0  0  0  0  0  0  0
   19.8870   10.9800   17.1240 C   0  0  0  0  0  2  0  0  0  0  0  0
   21.2680   10.8670   17.4850 O   0  0  0  0  0  0  0  0  0  0  0  0
   21.6950   10.3310   16.7960 H   0  0  0  0  0  0  0  0  0  0  0  0
   21.3020   12.4000   15.2600 O   0  0  0  0  0  0  0  0  0  0  0  0
   21.5580   13.0520   14.5670 H   0  0  0  0  0  0  0  0  0  0  0  0
   26.6630    8.9750   14.9170 O   0  0  0  0  0  0  0  0  0  0  0  0
   26.5930    8.0170   15.0750 H   0  0  0  0  0  0  0  0  0  0  0  0
   24.2520    9.8380   17.5630 O   0  0  0  0  0  0  0  0  0  0  0  0
   24.9530   10.4870   17.7870 H   0  0  0  0  0  0  0  0  0  0  0  0
  2  1  1  0
  3  2  1  0
  4  3  2  0
  5  3  1  0
  5  6  2  0
  7  6  1  0
  7  9  2  0
  8  9  1  0
  8 13  1  0
 10  8  2  0
 11 12  2  0
 11 10  1  0
 12  7  1  0
 13 14  1  0
 15 10  1  0
 15 16  1  0
 17  1  1  0
 17 19  1  0
 18 20  1  0
 18 17  1  0
 19 21  1  0
 19 23  1  0
 20 25  1  0
 20 22  1  0
 21 41  1  0
 21 22  1  0
 22 43  1  0
 23 24  1  0
 26 31  1  6
 26 27  1  0
 26 25  1  0
 27 29  1  0
 28 34  1  0
 28 30  1  0
 28 26  1  0
 29 36  1  0
 30 39  1  0
 30 29  1  0
 32 33  1  0
 32 31  1  0
 35 34  1  0
 36 37  1  0
 38 37  1  0
 40 39  1  0
 41 42  1  0
 43 44  1  0
M  RAD  8   1   3   5   2   6   2   9   2  11   2  12   2  14   2  28   2
M  RAD  4  29   2  30   2  31   3  36   3
M  END
>  <vina_score>  (1) 
-7.2220000000000004

>  <pose_id>  (1) 
1

$$$$

     RDKit          3D

 44 46  0  0  1  0  0  0  0  0999 V2000
   23.1850    8.8290   17.7780 C   0  0  0  0  0  2  0  0  0  0  0  0
   22.3930    9.8970   18.3330 O   0  0  0  0  0  0  0  0  0  0  0  0
   21.0520    9.7670   18.1690 C   0  0  0  0  0  0  0  0  0  0  0  0
   20.4710    9.2610   17.2220 O   0  0  0  0  0  0  0  0  0  0  0  0
   20.4060   10.4010   19.3390 C   0  0  0  0  0  3  0  0  0  0  0  0
   19.3740    9.8010   19.9530 C   0  0  0  0  0  3  0  0  0  0  0  0
   18.6150   10.4050   21.0580 C   0  0  0  0  0  0  0  0  0  0  0  0
   16.4350   10.8820   22.0500 C   0  0  0  0  0  0  0  0  0  0  0  0
   17.2130   10.3140   21.0340 C   0  0  0  0  0  3  0  0  0  0  0  0
   17.0800   11.5180   23.1180 C   0  0  0  0  0  0  0  0  0  0  0  0
   18.4700   11.5990   23.1670 C   0  0  0  0  0  3  0  0  0  0  0  0
   19.2340   11.0400   22.1420 C   0  0  0  0  0  3  0  0  0  0  0  0
   15.0670   10.8470   22.0950 O   0  0  0  0  0  0  0  0  0  0  0  0
   14.3940   10.4640   20.9060 C   0  0  0  0  0  1  0  0  0  0  0  0
   16.3320   12.0740   24.1200 O   0  0  0  0  0  0  0  0  0  0  0  0
   15.3990   12.0760   23.8510 H   0  0  0  0  0  0  0  0  0  0  0  0
   24.0320    9.3470   16.6040 C   0  0  0  0  0  0  0  0  0  0  0  0
   23.6320   10.6810   16.2670 O   0  0  0  0  0  0  0  0  0  0  0  0
   25.5380    9.3090   16.9600 C   0  0  0  0  0  0  0  0  0  0  0  0
   24.2300   11.1790   15.0640 C   0  0  0  0  0  0  0  0  0  0  0  0
   26.3230   10.4110   16.2160 C   0  0  0  0  0  0  0  0  0  0  0  0
   25.6730   10.6530   14.8500 C   0  0  0  0  0  0  0  0  0  0  0  0
   26.0450    8.0140   16.6110 O   0  0  0  0  0  0  0  0  0  0  0  0
   26.7030    7.7770   17.2990 H   0  0  0  0  0  0  0  0  0  0  0  0
   23.4580   10.8150   13.9250 O   0  0  0  0  0  0  0  0  0  0  0  0
   22.9780   11.8900   13.1140 C   0  0  1  0  0  0  0  0  0  0  0  0
   21.8930   11.3500   12.3280 O   0  0  0  0  0  0  0  0  0  0  0  0
   22.3020   13.0490   13.8750 C   0  0  0  0  0  3  0  0  0  0  0  0
   20.6730   11.4570   13.1100 C   0  0  0  0  0  3  0  0  0  0  0  0
   20.9400   12.4700   14.2350 C   0  0  0  0  0  3  0  0  0  0  0  0
   24.0610   12.3530   12.1060 C   0  0  0  0  0  2  0  0  0  0  0  0
   24.8480   11.2780   11.5890 O   0  0  0  0  0  0  0  0  0  0  0  0
   25.6900   11.6700   11.2770 H   0  0  0  0  0  0  0  0  0  0  0  0
   22.1120   14.2060   13.0380 O   0  0  0  0  0  0  0  0  0  0  0  0
   21.8030   14.9420   13.5940 H   0  0  0  0  0  0  0  0  0  0  0  0
   20.2430   10.0690   13.5910 C   0  0  0  0  0  2  0  0  0  0  0  0
   21.1500    9.0800   13.0910 O   0  0  0  0  0  0  0  0  0  0  0  0
   21.4960    9.4170   12.2490 H   0  0  0  0  0  0  0  0  0  0  0  0
   20.9500   11.8700   15.5270 O   0  0  0  0  0  0  0  0  0  0  0  0
   20.0160   11.8500   15.8400 H   0  0  0  0  0  0  0  0  0  0  0  0
   26.3710   11.6270   16.9700 O   0  0  0  0  0  0  0  0  0  0  0  0
   25.5430   11.7090   17.4750 H   0  0  0  0  0  0  0  0  0  0  0  0
   25.6710    9.4130   14.1110 O   0  0  0  0  0  0  0  0  0  0  0  0
   25.3690    9.6510   13.2080 H   0  0  0  0  0  0  0  0  0  0  0  0
  1  2  1  0
  3  2  1  0
  3  5  1  0
  4  3  2  0
  5  6  2  0
  6  7  1  0
  7 12  1  0
  8 13  1  0
  8 10  2  0
  9  7  2  0
  9  8  1  0
 10 11  1  0
 10 15  1  0
 12 11  2  0
 14 13  1  0
 16 15  1  0
 17 19  1  0
 17  1  1  0
 18 17  1  0
 19 23  1  0
 20 25  1  0
 20 18  1  0
 21 19  1  0
 21 41  1  0
 22 43  1  0
 22 20  1  0
 22 21  1  0
 23 24  1  0
 26 31  1  6
 26 28  1  0
 26 25  1  0
 27 29  1  0
 27 26  1  0
 28 34  1  0
 28 30  1  0
 29 36  1  0
 29 30  1  0
 30 39  1  0
 32 31  1  0
 33 32  1  0
 34 35  1  0
 37 36  1  0
 38 37  1  0
 39 40  1  0
 41 42  1  0
 44 43  1  0
M  RAD  8   1   3   5   2   6   2   9   2  11   2  12   2  14   2  28   2
M  RAD  4  29   2  30   2  31   3  36   3
M  END
>  <vina_score>  (2) 
-7.1109999999999998

>  <pose_id>  (2) 
2

$$$$

     RDKit          3D

 44 46  0  0  1  0  0  0  0  0999 V2000
   22.4620    9.6340   16.3540 C   0  0  0  0  0  2  0  0  0  0  0  0
   21.5580   10.3670   17.2030 O   0  0  0  0  0  0  0  0  0  0  0  0
   21.9010   10.4090   18.5150 C   0  0  0  0  0  0  0  0  0  0  0  0
   22.9750   10.0970   19.0050 O   0  0  0  0  0  0  0  0  0  0  0  0
   20.7080   10.8600   19.2640 C   0  0  0  0  0  3  0  0  0  0  0  0
   20.2660   10.1580   20.3200 C   0  0  0  0  0  3  0  0  0  0  0  0
   19.0350   10.4800   21.0590 C   0  0  0  0  0  0  0  0  0  0  0  0
   16.6370   10.1150   21.3410 C   0  0  0  0  0  0  0  0  0  0  0  0
   17.8420    9.8390   20.6840 C   0  0  0  0  0  3  0  0  0  0  0  0
   16.6420   11.0210   22.4080 C   0  0  0  0  0  0  0  0  0  0  0  0
   17.8200   11.6500   22.8050 C   0  0  0  0  0  3  0  0  0  0  0  0
   19.0140   11.3760   22.1360 C   0  0  0  0  0  3  0  0  0  0  0  0
   15.4330    9.5430   21.0300 O   0  0  0  0  0  0  0  0  0  0  0  0
   15.2660    9.0790   19.6990 C   0  0  0  0  0  1  0  0  0  0  0  0
   15.4720   11.2960   23.0610 O   0  0  0  0  0  0  0  0  0  0  0  0
   14.8250   11.6290   22.4190 H   0  0  0  0  0  0  0  0  0  0  0  0
   22.8480   10.4790   15.1290 C   0  0  0  0  0  0  0  0  0  0  0  0
   22.3950   11.8270   15.3050 O   0  0  0  0  0  0  0  0  0  0  0  0
   24.3810   10.4500   14.9090 C   0  0  0  0  0  0  0  0  0  0  0  0
   22.5390   12.6450   14.1370 C   0  0  0  0  0  0  0  0  0  0  0  0
   24.8810   11.7500   14.2410 C   0  0  0  0  0  0  0  0  0  0  0  0
   23.7940   12.2800   13.3020 C   0  0  0  0  0  0  0  0  0  0  0  0
   24.6910    9.3170   14.0880 O   0  0  0  0  0  0  0  0  0  0  0  0
   25.2280    9.6530   13.3390 H   0  0  0  0  0  0  0  0  0  0  0  0
   21.4000   12.5250   13.2910 O   0  0  0  0  0  0  0  0  0  0  0  0
   20.5640   13.6800   13.1860 C   0  0  1  0  0  0  0  0  0  0  0  0
   19.2980   13.2170   12.6680 O   0  0  0  0  0  0  0  0  0  0  0  0
   20.1650   14.3380   14.5230 C   0  0  0  0  0  3  0  0  0  0  0  0
   18.4820   12.7860   13.7920 C   0  0  0  0  0  3  0  0  0  0  0  0
   19.1000   13.3910   15.0620 C   0  0  0  0  0  3  0  0  0  0  0  0
   21.1250   14.6800   12.1420 C   0  0  0  0  0  2  0  0  0  0  0  0
   21.8900   15.7360   12.7260 O   0  0  0  0  0  0  0  0  0  0  0  0
   21.5170   16.5750   12.3860 H   0  0  0  0  0  0  0  0  0  0  0  0
   19.5780   15.6400   14.3290 O   0  0  0  0  0  0  0  0  0  0  0  0
   20.0860   16.2870   14.8500 H   0  0  0  0  0  0  0  0  0  0  0  0
   18.3770   11.2590   13.7990 C   0  0  0  0  0  2  0  0  0  0  0  0
   19.0680   10.7190   12.6670 O   0  0  0  0  0  0  0  0  0  0  0  0
   19.1220    9.7590   12.8030 H   0  0  0  0  0  0  0  0  0  0  0  0
   19.6640   12.4070   15.9250 O   0  0  0  0  0  0  0  0  0  0  0  0
   19.1570   11.5750   15.7760 H   0  0  0  0  0  0  0  0  0  0  0  0
   25.2310   12.7420   15.2120 O   0  0  0  0  0  0  0  0  0  0  0  0
   24.4270   12.9920   15.7010 H   0  0  0  0  0  0  0  0  0  0  0  0
   23.4910   11.2650   12.3230 O   0  0  0  0  0  0  0  0  0  0  0  0
   22.8090   10.6970   12.7410 H   0  0  0  0  0  0  0  0  0  0  0  0
  1  2  1  0
  2  3  1  0
  3  4  2  0
  3  5  1  0
  5  6  2  0
  6  7  1  0
  7 12  1  0
  8 10  2  0
  9  7  2  0
  9  8  1  0
 10 11  1  0
 10 15  1  0
 12 11  2  0
 13  8  1  0
 14 13  1  0
 16 15  1  0
 17 18  1  0
 17  1  1  0
 19 23  1  0
 19 17  1  0
 20 25  1  0
 20 18  1  0
 21 19  1  0
 21 41  1  0
 22 43  1  0
 22 20  1  0
 22 21  1  0
 24 23  1  0
 26 31  1  6
 26 25  1  0
 26 28  1  0
 27 26  1  0
 27 29  1  0
 28 34  1  0
 28 30  1  0
 29 36  1  0
 29 30  1  0
 30 39  1  0
 31 32  1  0
 33 32  1  0
 34 35  1  0
 37 38  1  0
 37 36  1  0
 40 39  1  0
 41 42  1  0
 43 44  1  0
M  RAD  8   1   3   5   2   6   2   9   2  11   2  12   2  14   2  28   2
M  RAD  4  29   2  30   2  31   3  36   3
M  END
>  <vina_score>  (3) 
-7.0460000000000003

>  <pose_id>  (3) 
3

$$$$

     RDKit          3D

 44 46  0  0  1  0  0  0  0  0999 V2000
   19.1560   10.9120   16.5570 C   0  0  0  0  0  2  0  0  0  0  0  0
   19.8300    9.6500   16.7290 O   0  0  0  0  0  0  0  0  0  0  0  0
   20.2810    9.4010   17.9850 C   0  0  0  0  0  0  0  0  0  0  0  0
   21.2450    8.7220   18.2990 O   0  0  0  0  0  0  0  0  0  0  0  0
   19.3530   10.0700   18.9230 C   0  0  0  0  0  3  0  0  0  0  0  0
   19.5370    9.9670   20.2480 C   0  0  0  0  0  3  0  0  0  0  0  0
   18.6100   10.5160   21.2490 C   0  0  0  0  0  0  0  0  0  0  0  0
   16.2980   10.8700   21.9510 C   0  0  0  0  0  0  0  0  0  0  0  0
   17.2290   10.3560   21.0420 C   0  0  0  0  0  3  0  0  0  0  0  0
   16.7640   11.5220   23.0990 C   0  0  0  0  0  0  0  0  0  0  0  0
   18.1300   11.6720   23.3300 C   0  0  0  0  0  3  0  0  0  0  0  0
   19.0500   11.1660   22.4090 C   0  0  0  0  0  3  0  0  0  0  0  0
   14.9390   10.7660   21.8170 O   0  0  0  0  0  0  0  0  0  0  0  0
   14.4320    9.5220   21.3570 C   0  0  0  0  0  1  0  0  0  0  0  0
   15.8650   12.0260   23.9980 O   0  0  0  0  0  0  0  0  0  0  0  0
   15.3010   11.3030   24.3170 H   0  0  0  0  0  0  0  0  0  0  0  0
   19.9540   11.8180   15.6050 C   0  0  0  0  0  0  0  0  0  0  0  0
   20.4240   11.0550   14.4870 O   0  0  0  0  0  0  0  0  0  0  0  0
   19.0800   13.0020   15.1210 C   0  0  0  0  0  0  0  0  0  0  0  0
   21.3370   11.7660   13.6420 C   0  0  0  0  0  0  0  0  0  0  0  0
   19.5040   13.4790   13.7150 C   0  0  0  0  0  0  0  0  0  0  0  0
   21.0140   13.2800   13.5520 C   0  0  0  0  0  0  0  0  0  0  0  0
   19.2120   14.0680   16.0700 O   0  0  0  0  0  0  0  0  0  0  0  0
   18.7660   14.8480   15.6760 H   0  0  0  0  0  0  0  0  0  0  0  0
   22.6740   11.6310   14.1130 O   0  0  0  0  0  0  0  0  0  0  0  0
   23.5390   10.7990   13.3350 C   0  0  1  0  0  0  0  0  0  0  0  0
   24.6900   10.5270   14.1630 O   0  0  0  0  0  0  0  0  0  0  0  0
   23.0020    9.3870   13.0220 C   0  0  0  0  0  3  0  0  0  0  0  0
   24.3890    9.3660   14.9850 C   0  0  0  0  0  3  0  0  0  0  0  0
   23.1860    8.6550   14.3460 C   0  0  0  0  0  3  0  0  0  0  0  0
   24.0650   11.5560   12.0880 C   0  0  0  0  0  2  0  0  0  0  0  0
   23.4000   11.1830   10.8790 O   0  0  0  0  0  0  0  0  0  0  0  0
   22.4950   11.5530   10.9290 H   0  0  0  0  0  0  0  0  0  0  0  0
   23.7830    8.7250   12.0090 O   0  0  0  0  0  0  0  0  0  0  0  0
   24.7060    8.6770   12.3140 H   0  0  0  0  0  0  0  0  0  0  0  0
   24.1750    9.8020   16.4370 C   0  0  0  0  0  2  0  0  0  0  0  0
   24.1210    8.6500   17.2850 O   0  0  0  0  0  0  0  0  0  0  0  0
   23.1860    8.3960   17.3560 H   0  0  0  0  0  0  0  0  0  0  0  0
   22.0120    8.7240   15.1500 O   0  0  0  0  0  0  0  0  0  0  0  0
   21.6660    7.8050   15.2290 H   0  0  0  0  0  0  0  0  0  0  0  0
   18.7940   12.7820   12.6850 O   0  0  0  0  0  0  0  0  0  0  0  0
   18.0300   13.3230   12.4170 H   0  0  0  0  0  0  0  0  0  0  0  0
   21.6930   14.0200   14.5890 O   0  0  0  0  0  0  0  0  0  0  0  0
   21.4130   14.9530   14.4670 H   0  0  0  0  0  0  0  0  0  0  0  0
  1  2  1  0
  2  3  1  0
  3  4  2  0
  3  5  1  0
  5  6  2  0
  6  7  1  0
  7 12  1  0
  8 10  2  0
  9  7  2  0
  9  8  1  0
 10 11  1  0
 10 15  1  0
 12 11  2  0
 13  8  1  0
 14 13  1  0
 15 16  1  0
 17  1  1  0
 18 17  1  0
 19 17  1  0
 19 23  1  0
 20 25  1  0
 20 18  1  0
 21 41  1  0
 21 19  1  0
 22 20  1  0
 22 21  1  0
 22 43  1  0
 24 23  1  0
 26 31  1  6
 26 25  1  0
 26 27  1  0
 27 29  1  0
 28 34  1  0
 28 26  1  0
 28 30  1  0
 29 36  1  0
 30 29  1  0
 30 39  1  0
 32 33  1  0
 32 31  1  0
 34 35  1  0
 36 37  1  0
 37 38  1  0
 39 40  1  0
 42 41  1  0
 44 43  1  0
M  RAD  8   1   3   5   2   6   2   9   2  11   2  12   2  14   2  28   2
M  RAD  4  29   2  30   2  31   3  36   3
M  END
>  <vina_score>  (4) 
-6.9269999999999996

>  <pose_id>  (4) 
4

$$$$

     RDKit          3D

 44 46  0  0  1  0  0  0  0  0999 V2000
   18.6240   12.7030   13.9080 C   0  0  0  0  0  2  0  0  0  0  0  0
   18.0370   13.1010   15.1620 O   0  0  0  0  0  0  0  0  0  0  0  0
   17.1810   12.2010   15.7110 C   0  0  0  0  0  0  0  0  0  0  0  0
   16.0130   12.0170   15.4090 O   0  0  0  0  0  0  0  0  0  0  0  0
   17.9130   11.5070   16.7930 C   0  0  0  0  0  3  0  0  0  0  0  0
   18.3460   12.1890   17.8640 C   0  0  0  0  0  3  0  0  0  0  0  0
   19.1630   11.5990   18.9350 C   0  0  0  0  0  0  0  0  0  0  0  0
   19.4520   11.1800   21.3240 C   0  0  0  0  0  0  0  0  0  0  0  0
   18.7110   11.7100   20.2610 C   0  0  0  0  0  3  0  0  0  0  0  0
   20.6450   10.5030   21.0440 C   0  0  0  0  0  0  0  0  0  0  0  0
   21.0970   10.3660   19.7340 C   0  0  0  0  0  3  0  0  0  0  0  0
   20.3560   10.9080   18.6820 C   0  0  0  0  0  3  0  0  0  0  0  0
   19.0870   11.2560   22.6420 O   0  0  0  0  0  0  0  0  0  0  0  0
   17.8860   11.9530   22.9370 C   0  0  0  0  0  1  0  0  0  0  0  0
   21.3770    9.9770   22.0730 O   0  0  0  0  0  0  0  0  0  0  0  0
   22.0290    9.3570   21.7100 H   0  0  0  0  0  0  0  0  0  0  0  0
   20.1470   12.9120   13.9410 C   0  0  0  0  0  0  0  0  0  0  0  0
   20.7570   12.2150   12.8470 O   0  0  0  0  0  0  0  0  0  0  0  0
   20.4900   14.4210   13.8780 C   0  0  0  0  0  0  0  0  0  0  0  0
   22.1880   12.1920   12.9010 C   0  0  0  0  0  0  0  0  0  0  0  0
   21.8570   14.6620   13.2000 C   0  0  0  0  0  0  0  0  0  0  0  0
   22.7860   13.4850   13.5140 C   0  0  0  0  0  0  0  0  0  0  0  0
   20.5020   14.9300   15.2180 O   0  0  0  0  0  0  0  0  0  0  0  0
   21.3250   15.4560   15.3090 H   0  0  0  0  0  0  0  0  0  0  0  0
   22.6490   11.0880   13.6740 O   0  0  0  0  0  0  0  0  0  0  0  0
   23.4890   10.1480   12.9990 C   0  0  1  0  0  0  0  0  0  0  0  0
   24.6920   10.0400   13.7910 O   0  0  0  0  0  0  0  0  0  0  0  0
   22.9720    8.6960   12.9640 C   0  0  0  0  0  3  0  0  0  0  0  0
   24.4680    9.0330   14.8150 C   0  0  0  0  0  3  0  0  0  0  0  0
   23.2490    8.2040   14.3790 C   0  0  0  0  0  3  0  0  0  0  0  0
   23.9250   10.6880   11.6120 C   0  0  0  0  0  2  0  0  0  0  0  0
   25.2180   10.2330   11.2100 O   0  0  0  0  0  0  0  0  0  0  0  0
   25.3270    9.3320   11.5790 H   0  0  0  0  0  0  0  0  0  0  0  0
   23.7110    7.8820   12.0340 O   0  0  0  0  0  0  0  0  0  0  0  0
   23.9840    7.0650   12.4870 H   0  0  0  0  0  0  0  0  0  0  0  0
   24.3250    9.7080   16.1810 C   0  0  0  0  0  2  0  0  0  0  0  0
   24.5030   11.1220   16.0450 O   0  0  0  0  0  0  0  0  0  0  0  0
   23.6900   11.5400   16.3730 H   0  0  0  0  0  0  0  0  0  0  0  0
   22.1210    8.3920   15.2300 O   0  0  0  0  0  0  0  0  0  0  0  0
   21.7110    9.2510   14.9730 H   0  0  0  0  0  0  0  0  0  0  0  0
   21.7220   14.8280   11.7850 O   0  0  0  0  0  0  0  0  0  0  0  0
   21.5580   13.9550   11.3860 H   0  0  0  0  0  0  0  0  0  0  0  0
   22.9180   13.3690   14.9470 O   0  0  0  0  0  0  0  0  0  0  0  0
   23.5790   14.0480   15.2020 H   0  0  0  0  0  0  0  0  0  0  0  0
  1  2  1  0
  2  3  1  0
  3  5  1  0
  4  3  2  0
  5  6  2  0
  6  7  1  0
  7  9  2  0
  8 13  1  0
  9  8  1  0
 10  8  2  0
 10 15  1  0
 11 10  1  0
 12  7  1  0
 12 11  2  0
 13 14  1  0
 16 15  1  0
 17  1  1  0
 18 20  1  0
 18 17  1  0
 19 17  1  0
 19 23  1  0
 20 22  1  0
 20 25  1  0
 21 41  1  0
 21 22  1  0
 21 19  1  0
 22 43  1  0
 23 24  1  0
 26 31  1  6
 26 25  1  0
 26 27  1  0
 27 29  1  0
 28 34  1  0
 28 26  1  0
 28 30  1  0
 29 36  1  0
 30 29  1  0
 30 39  1  0
 32 33  1  0
 32 31  1  0
 34 35  1  0
 37 36  1  0
 37 38  1  0
 40 39  1  0
 42 41  1  0
 43 44  1  0
M  RAD  8   1   3   5   2   6   2   9   2  11   2  12   2  14   2  28   2
M  RAD  4  29   2  30   2  31   3  36   3
M  END
>  <vina_score>  (5) 
-6.7640000000000002

>  <pose_id>  (5) 
5

$$$$
