
     RDKit          3D

 32 34  0  0  1  0  0  0  0  0999 V2000
   17.2960   12.9450   15.8600 C   0  0  0  0  0  3  0  0  0  0  0  0
   17.4270   12.7180   17.3020 N   0  0  0  0  0  0  0  0  0  0  0  0
   17.4130   11.4600   17.8570 C   0  0  0  0  0  0  0  0  0  0  0  0
   17.3290   10.4320   17.1940 O   0  0  0  0  0  0  0  0  0  0  0  0
   17.6570   13.5220   17.8700 H   0  0  0  0  0  0  0  0  0  0  0  0
   17.5620   11.3900   19.3360 C   0  0  0  0  0  0  0  0  0  0  0  0
   17.9220   11.2950   22.1210 C   0  0  0  0  0  0  0  0  0  0  0  0
   16.7050   10.9090   21.5570 C   0  0  0  0  0  3  0  0  0  0  0  0
   18.9610   11.7140   21.2850 C   0  0  0  0  0  3  0  0  0  0  0  0
   16.5240   10.9530   20.1690 C   0  0  0  0  0  3  0  0  0  0  0  0
   18.7880   11.7570   19.9000 C   0  0  0  0  0  3  0  0  0  0  0  0
   18.2240   11.3030   23.4540 O   0  0  0  0  0  0  0  0  0  0  0  0
   17.3040   11.9550   24.3210 C   0  0  0  0  0  1  0  0  0  0  0  0
   18.3640   13.9720   15.3840 C   0  0  0  0  0  0  0  0  0  0  0  0
   18.2850   15.1650   15.6910 O   0  0  0  0  0  0  0  0  0  0  0  0
   19.4070   13.5150   14.5860 N   0  0  0  0  0  0  0  0  0  0  0  0
   20.4510   14.4580   14.1740 C   0  0  0  0  0  2  0  0  0  0  0  0
   19.4850   12.1760   13.9820 C   0  0  0  0  0  2  0  0  0  0  0  0
   21.8120   13.7810   13.9340 C   0  0  0  0  0  2  0  0  0  0  0  0
   20.3690   12.1230   12.7180 C   0  0  0  0  0  2  0  0  0  0  0  0
   21.7140   12.6470   12.9970 N   0  0  0  0  0  0  0  0  0  0  0  0
   22.8030   12.3300   12.1880 C   0  0  0  0  0  0  0  0  0  0  0  0
   23.4150   13.3420   11.4210 C   0  0  0  0  0  3  0  0  0  0  0  0
   23.3820   11.0450   12.0830 C   0  0  0  0  0  0  0  0  0  0  0  0
   24.5240   13.1000   10.6010 C   0  0  0  0  0  3  0  0  0  0  0  0
   24.4940   10.7940   11.2640 C   0  0  0  0  0  3  0  0  0  0  0  0
   25.0640   11.8240   10.5240 C   0  0  0  0  0  3  0  0  0  0  0  0
   22.8410    9.9790   12.7610 O   0  0  0  0  0  0  0  0  0  0  0  0
   22.0880    9.6360   12.2570 H   0  0  0  0  0  0  0  0  0  0  0  0
   15.8510   13.3750   15.4880 C   0  0  0  0  0  3  0  0  0  0  0  0
   15.6800   13.7320   14.0060 C   0  0  0  0  0  1  0  0  0  0  0  0
   15.3870   14.5540   16.3500 C   0  0  0  0  0  1  0  0  0  0  0  0
  1 14  1  0
  1  2  1  0
  2  3  1  0
  2  5  1  0
  3  6  1  0
  4  3  2  0
  6 11  2  0
  6 10  1  0
  7 12  1  0
  8  7  1  0
  9  7  2  0
 10  8  2  0
 11  9  1  0
 12 13  1  0
 14 15  2  0
 16 14  1  0
 17 16  1  0
 18 16  1  0
 19 17  1  0
 20 21  1  0
 20 18  1  0
 21 19  1  0
 22 21  1  0
 23 22  2  0
 24 22  1  0
 24 28  1  0
 25 23  1  0
 26 24  2  0
 27 25  2  0
 27 26  1  0
 29 28  1  0
 30  1  1  0
 30 32  1  0
 31 30  1  0
M  RAD  8   1   2   8   2   9   2  10   2  11   2  13   2  17   3  18   3
M  RAD  8  19   3  20   3  23   2  25   2  26   2  27   2  30   2  31   2
M  RAD  1  32   2
M  END
>  <vina_score>  (1) 
-7.5949999999999998

>  <pose_id>  (1) 
1

$$$$

     RDKit          3D

 32 34  0  0  1  0  0  0  0  0999 V2000
   22.4410    9.1150   16.0410 C   0  0  0  0  0  3  0  0  0  0  0  0
   22.9190    9.8520   14.8680 N   0  0  0  0  0  0  0  0  0  0  0  0
   22.1840   10.8510   14.2720 C   0  0  0  0  0  0  0  0  0  0  0  0
   21.0950   11.2280   14.6920 O   0  0  0  0  0  0  0  0  0  0  0  0
   23.8750    9.6860   14.5840 H   0  0  0  0  0  0  0  0  0  0  0  0
   22.8050   11.5110   13.0910 C   0  0  0  0  0  0  0  0  0  0  0  0
   23.9250   12.8280   10.8760 C   0  0  0  0  0  0  0  0  0  0  0  0
   24.4180   11.5850   11.2780 C   0  0  0  0  0  3  0  0  0  0  0  0
   22.8610   13.4000   11.5790 C   0  0  0  0  0  3  0  0  0  0  0  0
   23.8590   10.9260   12.3790 C   0  0  0  0  0  3  0  0  0  0  0  0
   22.2970   12.7470   12.6770 C   0  0  0  0  0  3  0  0  0  0  0  0
   24.3830   13.5740    9.8270 O   0  0  0  0  0  0  0  0  0  0  0  0
   23.5210   14.5900    9.3320 C   0  0  0  0  0  1  0  0  0  0  0  0
   22.6960    9.9460   17.3320 C   0  0  0  0  0  0  0  0  0  0  0  0
   23.7970   10.4580   17.5550 O   0  0  0  0  0  0  0  0  0  0  0  0
   21.6540   10.0850   18.2410 N   0  0  0  0  0  0  0  0  0  0  0  0
   21.8610   10.9100   19.4360 C   0  0  0  0  0  2  0  0  0  0  0  0
   20.3820    9.3490   18.1900 C   0  0  0  0  0  2  0  0  0  0  0  0
   20.5600   11.5450   19.9600 C   0  0  0  0  0  2  0  0  0  0  0  0
   19.6880    9.2240   19.5620 C   0  0  0  0  0  2  0  0  0  0  0  0
   19.4980   10.5470   20.1760 N   0  0  0  0  0  0  0  0  0  0  0  0
   18.5490   10.7590   21.1740 C   0  0  0  0  0  0  0  0  0  0  0  0
   18.9570   11.2810   22.4180 C   0  0  0  0  0  3  0  0  0  0  0  0
   17.1650   10.5100   21.0360 C   0  0  0  0  0  0  0  0  0  0  0  0
   18.0570   11.5370   23.4590 C   0  0  0  0  0  3  0  0  0  0  0  0
   16.2560   10.7650   22.0740 C   0  0  0  0  0  3  0  0  0  0  0  0
   16.7040   11.2790   23.2860 C   0  0  0  0  0  3  0  0  0  0  0  0
   16.6660    9.9670   19.8760 O   0  0  0  0  0  0  0  0  0  0  0  0
   15.9130   10.5000   19.5790 H   0  0  0  0  0  0  0  0  0  0  0  0
   23.0740    7.6990   16.1110 C   0  0  0  0  0  3  0  0  0  0  0  0
   24.4450    7.6070   15.4290 C   0  0  0  0  0  1  0  0  0  0  0  0
   22.1370    6.6450   15.5110 C   0  0  0  0  0  1  0  0  0  0  0  0
  1 30  1  0
  1 14  1  0
  2  1  1  0
  3  4  2  0
  3  2  1  0
  5  2  1  0
  6  3  1  0
  7  8  1  0
  7  9  2  0
  8 10  2  0
  9 11  1  0
 10  6  1  0
 11  6  2  0
 12  7  1  0
 13 12  1  0
 14 15  2  0
 14 16  1  0
 16 17  1  0
 17 19  1  0
 18 16  1  0
 18 20  1  0
 19 21  1  0
 20 21  1  0
 21 22  1  0
 22 23  2  0
 23 25  1  0
 24 22  1  0
 24 26  2  0
 26 27  1  0
 27 25  2  0
 28 24  1  0
 29 28  1  0
 31 30  1  0
 32 30  1  0
M  RAD  8   1   2   8   2   9   2  10   2  11   2  13   2  17   3  18   3
M  RAD  8  19   3  20   3  23   2  25   2  26   2  27   2  30   2  31   2
M  RAD  1  32   2
M  END
>  <vina_score>  (2) 
-7.5819999999999999

>  <pose_id>  (2) 
2

$$$$

     RDKit          3D

 32 34  0  0  1  0  0  0  0  0999 V2000
   20.7920   14.7000   11.9810 C   0  0  0  0  0  3  0  0  0  0  0  0
   19.7800   15.0250   12.9910 N   0  0  0  0  0  0  0  0  0  0  0  0
   18.7030   14.2090   13.2480 C   0  0  0  0  0  0  0  0  0  0  0  0
   18.5220   13.1350   12.6850 O   0  0  0  0  0  0  0  0  0  0  0  0
   19.9710   15.8180   13.5880 H   0  0  0  0  0  0  0  0  0  0  0  0
   17.7640   14.6710   14.3050 C   0  0  0  0  0  0  0  0  0  0  0  0
   15.9970   15.6250   16.2710 C   0  0  0  0  0  0  0  0  0  0  0  0
   16.2640   14.2590   16.1700 C   0  0  0  0  0  3  0  0  0  0  0  0
   16.6290   16.5120   15.3950 C   0  0  0  0  0  3  0  0  0  0  0  0
   17.1460   13.7820   15.1940 C   0  0  0  0  0  3  0  0  0  0  0  0
   17.5130   16.0420   14.4200 C   0  0  0  0  0  3  0  0  0  0  0  0
   15.1570   16.2160   17.1720 O   0  0  0  0  0  0  0  0  0  0  0  0
   14.3440   15.3550   17.9590 C   0  0  0  0  0  1  0  0  0  0  0  0
   22.1910   14.5740   12.6510 C   0  0  0  0  0  0  0  0  0  0  0  0
   22.9830   15.5200   12.6590 O   0  0  0  0  0  0  0  0  0  0  0  0
   22.5360   13.3580   13.2300 N   0  0  0  0  0  0  0  0  0  0  0  0
   23.8280   13.2390   13.9130 C   0  0  0  0  0  2  0  0  0  0  0  0
   21.7720   12.1090   13.0930 C   0  0  0  0  0  2  0  0  0  0  0  0
   23.8160   12.1940   15.0420 C   0  0  0  0  0  2  0  0  0  0  0  0
   22.6270   10.8400   13.2930 C   0  0  0  0  0  2  0  0  0  0  0  0
   23.3290   10.8810   14.5850 N   0  0  0  0  0  0  0  0  0  0  0  0
   23.8080    9.7220   15.1920 C   0  0  0  0  0  0  0  0  0  0  0  0
   22.9960    9.0380   16.1180 C   0  0  0  0  0  3  0  0  0  0  0  0
   25.0710    9.1410   14.9350 C   0  0  0  0  0  0  0  0  0  0  0  0
   23.4050    7.8580   16.7520 C   0  0  0  0  0  3  0  0  0  0  0  0
   25.4880    7.9580   15.5650 C   0  0  0  0  0  3  0  0  0  0  0  0
   24.6520    7.3180   16.4740 C   0  0  0  0  0  3  0  0  0  0  0  0
   25.9560    9.7460   14.0750 O   0  0  0  0  0  0  0  0  0  0  0  0
   26.2800   10.5630   14.4830 H   0  0  0  0  0  0  0  0  0  0  0  0
   20.7790   15.7320   10.8210 C   0  0  0  0  0  3  0  0  0  0  0  0
   19.4440   15.7920   10.0690 C   0  0  0  0  0  1  0  0  0  0  0  0
   21.9110   15.4570    9.8250 C   0  0  0  0  0  1  0  0  0  0  0  0
  1 30  1  0
  1 14  1  0
  1  2  1  0
  2  3  1  0
  2  5  1  0
  3  6  1  0
  4  3  2  0
  6 11  2  0
  6 10  1  0
  7 12  1  0
  8  7  1  0
  9  7  2  0
 10  8  2  0
 11  9  1  0
 12 13  1  0
 14 15  2  0
 14 16  1  0
 16 17  1  0
 17 19  1  0
 18 16  1  0
 18 20  1  0
 20 21  1  0
 21 19  1  0
 21 22  1  0
 22 23  2  0
 23 25  1  0
 24 22  1  0
 24 26  2  0
 26 27  1  0
 27 25  2  0
 28 29  1  0
 28 24  1  0
 31 30  1  0
 32 30  1  0
M  RAD  8   1   2   8   2   9   2  10   2  11   2  13   2  17   3  18   3
M  RAD  8  19   3  20   3  23   2  25   2  26   2  27   2  30   2  31   2
M  RAD  1  32   2
M  END
>  <vina_score>  (3) 
-7.4720000000000004

>  <pose_id>  (3) 
3

$$$$

     RDKit          3D

 32 34  0  0  1  0  0  0  0  0999 V2000
   22.9310    9.4440   17.1560 C   0  0  0  0  0  3  0  0  0  0  0  0
   21.7970    9.8190   18.0060 N   0  0  0  0  0  0  0  0  0  0  0  0
   21.9530   10.5040   19.1890 C   0  0  0  0  0  0  0  0  0  0  0  0
   23.0400   10.8880   19.6060 O   0  0  0  0  0  0  0  0  0  0  0  0
   20.8730    9.6640   17.6270 H   0  0  0  0  0  0  0  0  0  0  0  0
   20.7060   10.8170   19.9390 C   0  0  0  0  0  0  0  0  0  0  0  0
   18.3940   11.3860   21.4300 C   0  0  0  0  0  0  0  0  0  0  0  0
   18.4140   11.6110   20.0520 C   0  0  0  0  0  3  0  0  0  0  0  0
   19.5290   10.8630   22.0540 C   0  0  0  0  0  3  0  0  0  0  0  0
   19.5640   11.3240   19.3070 C   0  0  0  0  0  3  0  0  0  0  0  0
   20.6790   10.5730   21.3150 C   0  0  0  0  0  3  0  0  0  0  0  0
   17.3420   11.6270   22.2680 O   0  0  0  0  0  0  0  0  0  0  0  0
   17.6240   11.6720   23.6610 C   0  0  0  0  0  1  0  0  0  0  0  0
   22.4490    9.2280   15.6920 C   0  0  0  0  0  0  0  0  0  0  0  0
   21.9660    8.1510   15.3310 O   0  0  0  0  0  0  0  0  0  0  0  0
   22.5920   10.2760   14.7910 N   0  0  0  0  0  0  0  0  0  0  0  0
   22.0940   10.1080   13.4220 C   0  0  0  0  0  2  0  0  0  0  0  0
   23.3440   11.5140   15.0450 C   0  0  0  0  0  2  0  0  0  0  0  0
   21.6710   11.4350   12.7690 C   0  0  0  0  0  2  0  0  0  0  0  0
   23.8470   12.2040   13.7600 C   0  0  0  0  0  2  0  0  0  0  0  0
   22.7350   12.4530   12.8300 N   0  0  0  0  0  0  0  0  0  0  0  0
   22.8270   13.4110   11.8230 C   0  0  0  0  0  0  0  0  0  0  0  0
   22.1090   14.6180   11.9460 C   0  0  0  0  0  3  0  0  0  0  0  0
   23.6200   13.2840   10.6600 C   0  0  0  0  0  0  0  0  0  0  0  0
   22.1690   15.6320   10.9820 C   0  0  0  0  0  3  0  0  0  0  0  0
   23.6870   14.2960    9.6900 C   0  0  0  0  0  3  0  0  0  0  0  0
   22.9590   15.4700    9.8530 C   0  0  0  0  0  3  0  0  0  0  0  0
   24.3320   12.1320   10.4230 O   0  0  0  0  0  0  0  0  0  0  0  0
   24.2680   11.9120    9.4810 H   0  0  0  0  0  0  0  0  0  0  0  0
   23.6760    8.2070   17.7260 C   0  0  0  0  0  3  0  0  0  0  0  0
   24.9050    7.7990   16.9040 C   0  0  0  0  0  1  0  0  0  0  0  0
   22.7320    7.0070   17.8580 C   0  0  0  0  0  1  0  0  0  0  0  0
  1 14  1  0
  1 30  1  0
  1  2  1  0
  2  3  1  0
  3  4  2  0
  3  6  1  0
  5  2  1  0
  6 11  2  0
  7  9  2  0
  7 12  1  0
  8  7  1  0
 10  6  1  0
 10  8  2  0
 11  9  1  0
 12 13  1  0
 15 14  2  0
 16 18  1  0
 16 14  1  0
 17 16  1  0
 19 21  1  0
 19 17  1  0
 20 18  1  0
 21 20  1  0
 22 23  2  0
 22 21  1  0
 24 22  1  0
 25 23  1  0
 26 27  1  0
 26 24  2  0
 27 25  2  0
 28 24  1  0
 29 28  1  0
 30 32  1  0
 31 30  1  0
M  RAD  8   1   2   8   2   9   2  10   2  11   2  13   2  17   3  18   3
M  RAD  8  19   3  20   3  23   2  25   2  26   2  27   2  30   2  31   2
M  RAD  1  32   2
M  END
>  <vina_score>  (4) 
-7.3840000000000003

>  <pose_id>  (4) 
4

$$$$

     RDKit          3D

 32 34  0  0  1  0  0  0  0  0999 V2000
   22.7060    9.9720   15.4100 C   0  0  0  0  0  3  0  0  0  0  0  0
   22.5990   11.1920   14.6060 N   0  0  0  0  0  0  0  0  0  0  0  0
   21.8350   11.2620   13.4630 C   0  0  0  0  0  0  0  0  0  0  0  0
   21.1560   10.3280   13.0500 O   0  0  0  0  0  0  0  0  0  0  0  0
   23.0120   12.0300   14.9920 H   0  0  0  0  0  0  0  0  0  0  0  0
   21.8230   12.5710   12.7570 C   0  0  0  0  0  0  0  0  0  0  0  0
   21.8820   15.0270   11.3920 C   0  0  0  0  0  0  0  0  0  0  0  0
   20.7270   14.6250   12.0650 C   0  0  0  0  0  3  0  0  0  0  0  0
   23.0100   14.2010   11.4170 C   0  0  0  0  0  3  0  0  0  0  0  0
   20.6970   13.4030   12.7490 C   0  0  0  0  0  3  0  0  0  0  0  0
   22.9870   12.9830   12.0990 C   0  0  0  0  0  3  0  0  0  0  0  0
   22.0400   16.1860   10.6870 O   0  0  0  0  0  0  0  0  0  0  0  0
   22.5950   16.0790    9.3820 C   0  0  0  0  0  1  0  0  0  0  0  0
   22.6000   10.3220   16.9230 C   0  0  0  0  0  0  0  0  0  0  0  0
   23.6050   10.5840   17.5900 O   0  0  0  0  0  0  0  0  0  0  0  0
   21.3420   10.3160   17.5140 N   0  0  0  0  0  0  0  0  0  0  0  0
   21.2190   10.6960   18.9240 C   0  0  0  0  0  2  0  0  0  0  0  0
   20.1130    9.8130   16.8820 C   0  0  0  0  0  2  0  0  0  0  0  0
   19.8490   11.3110   19.2640 C   0  0  0  0  0  2  0  0  0  0  0  0
   19.0380    9.3670   17.8950 C   0  0  0  0  0  2  0  0  0  0  0  0
   18.7300   10.4500   18.8420 N   0  0  0  0  0  0  0  0  0  0  0  0
   17.5380   10.4720   19.5620 C   0  0  0  0  0  0  0  0  0  0  0  0
   17.5340   10.0620   20.9100 C   0  0  0  0  0  3  0  0  0  0  0  0
   16.2950   10.9060   19.0480 C   0  0  0  0  0  0  0  0  0  0  0  0
   16.3780   10.0770   21.6990 C   0  0  0  0  0  3  0  0  0  0  0  0
   15.1310   10.9250   19.8330 C   0  0  0  0  0  3  0  0  0  0  0  0
   15.1750   10.5090   21.1590 C   0  0  0  0  0  3  0  0  0  0  0  0
   16.1790   11.2940   17.7350 O   0  0  0  0  0  0  0  0  0  0  0  0
   16.9710   11.0100   17.2530 H   0  0  0  0  0  0  0  0  0  0  0  0
   24.0010    9.1860   15.0710 C   0  0  0  0  0  3  0  0  0  0  0  0
   25.0840   10.0470   14.4090 C   0  0  0  0  0  1  0  0  0  0  0  0
   23.6950    7.9790   14.1770 C   0  0  0  0  0  1  0  0  0  0  0  0
  1 30  1  0
  1 14  1  0
  2  5  1  0
  2  1  1  0
  3  2  1  0
  4  3  2  0
  6  3  1  0
  7  9  2  0
  7  8  1  0
  8 10  2  0
  9 11  1  0
 10  6  1  0
 11  6  2  0
 12  7  1  0
 13 12  1  0
 14 16  1  0
 14 15  2  0
 16 17  1  0
 17 19  1  0
 18 16  1  0
 18 20  1  0
 20 21  1  0
 21 19  1  0
 21 22  1  0
 22 23  2  0
 23 25  1  0
 24 22  1  0
 24 26  2  0
 26 27  1  0
 27 25  2  0
 28 24  1  0
 29 28  1  0
 31 30  1  0
 32 30  1  0
M  RAD  8   1   2   8   2   9   2  10   2  11   2  13   2  17   3  18   3
M  RAD  8  19   3  20   3  23   2  25   2  26   2  27   2  30   2  31   2
M  RAD  1  32   2
M  END
>  <vina_score>  (5) 
-7.3650000000000002

>  <pose_id>  (5) 
5

$$$$
