
     RDKit          3D

 21 22  0  0  0  0  0  0  0  0999 V2000
   19.7480   15.3840   12.3590 N   0  0  0  0  0  0  0  0  0  0  0  0
   18.6070   15.6440   11.6220 C   0  0  0  0  0  0  0  0  0  0  0  0
   18.4270   15.4050   10.4330 O   0  0  0  0  0  0  0  0  0  0  0  0
   19.6710   15.6820   13.3290 H   0  0  0  0  0  0  0  0  0  0  0  0
   20.9570   14.8100   11.9320 C   0  0  0  0  0  0  0  0  0  0  0  0
   23.3690   13.5360   11.1860 C   0  0  0  0  0  0  0  0  0  0  0  0
   22.9440   14.7070   10.5440 C   0  0  0  0  0  3  0  0  0  0  0  0
   22.5680   13.0110   12.2080 C   0  0  0  0  0  0  0  0  0  0  0  0
   21.7500   15.3370   10.9140 C   0  0  0  0  0  3  0  0  0  0  0  0
   21.3740   13.6410   12.5770 C   0  0  0  0  0  3  0  0  0  0  0  0
   24.6560   12.8850   10.7640 C   0  0  0  0  0  1  0  0  0  0  0  0
   23.0130   11.5720   13.0550 Cl  0  0  0  0  0  0  0  0  0  0  0  0
   17.4910   16.2550   12.4870 C   0  0  0  0  0  2  0  0  0  0  0  0
   17.9870   16.5080   13.8640 N   0  0  0  0  0  0  0  0  0  0  0  0
   18.0360   17.5250   13.9750 H   0  0  0  0  0  0  0  0  0  0  0  0
   17.1120   15.9780   14.9230 C   0  0  0  0  0  3  0  0  0  0  0  0
   17.5120   14.5480   15.3330 C   0  0  0  0  0  2  0  0  0  0  0  0
   15.6090   16.0830   14.6340 C   0  0  0  0  0  2  0  0  0  0  0  0
   16.4000   13.7970   16.0730 C   0  0  0  0  0  2  0  0  0  0  0  0
   14.7710   15.7190   15.8650 C   0  0  0  0  0  2  0  0  0  0  0  0
   15.4620   14.7380   16.8140 C   0  0  0  0  0  2  0  0  0  0  0  0
  1  4  1  0
  2  1  1  0
  2 13  1  0
  3  2  2  0
  5  1  1  0
  5 10  2  0
  6  8  2  0
  7  9  2  0
  7  6  1  0
  8 10  1  0
  8 12  1  0
  9  5  1  0
 11  6  1  0
 13 14  1  0
 14 15  1  0
 14 16  1  0
 16 17  1  0
 17 19  1  0
 18 16  1  0
 18 20  1  0
 19 21  1  0
 20 21  1  0
M  RAD  8   7   2   9   2  10   2  11   2  13   3  16   2  17   3  18   3
M  RAD  3  19   3  20   3  21   3
M  END
>  <vina_score>  (1) 
-6.444

>  <pose_id>  (1) 
1

$$$$

     RDKit          3D

 21 22  0  0  0  0  0  0  0  0999 V2000
   20.0550   14.4360   13.2240 N   0  0  0  0  0  0  0  0  0  0  0  0
   19.9200   15.1680   14.3900 C   0  0  0  0  0  0  0  0  0  0  0  0
   20.8170   15.7090   15.0290 O   0  0  0  0  0  0  0  0  0  0  0  0
   19.1680   14.0710   12.8810 H   0  0  0  0  0  0  0  0  0  0  0  0
   21.2250   14.1270   12.5120 C   0  0  0  0  0  0  0  0  0  0  0  0
   23.5950   13.3680   11.1690 C   0  0  0  0  0  0  0  0  0  0  0  0
   22.9210   14.5480   10.8300 C   0  0  0  0  0  3  0  0  0  0  0  0
   23.0640   12.5710   12.1920 C   0  0  0  0  0  0  0  0  0  0  0  0
   21.7470   14.9230   11.4940 C   0  0  0  0  0  3  0  0  0  0  0  0
   21.8910   12.9470   12.8560 C   0  0  0  0  0  3  0  0  0  0  0  0
   24.8510   12.9940   10.4350 C   0  0  0  0  0  1  0  0  0  0  0  0
   23.8280   11.0990   12.6780 Cl  0  0  0  0  0  0  0  0  0  0  0  0
   18.4500   15.2960   14.8230 C   0  0  0  0  0  2  0  0  0  0  0  0
   17.8080   16.4430   14.1320 N   0  0  0  0  0  0  0  0  0  0  0  0
   18.5560   16.9530   13.6540 H   0  0  0  0  0  0  0  0  0  0  0  0
   16.8100   16.0510   13.1210 C   0  0  0  0  0  3  0  0  0  0  0  0
   15.9980   14.8200   13.5680 C   0  0  0  0  0  2  0  0  0  0  0  0
   17.3610   15.8800   11.7010 C   0  0  0  0  0  2  0  0  0  0  0  0
   15.2900   14.1100   12.4090 C   0  0  0  0  0  2  0  0  0  0  0  0
   16.2350   15.6910   10.6770 C   0  0  0  0  0  2  0  0  0  0  0  0
   14.9710   15.0560   11.2600 C   0  0  0  0  0  2  0  0  0  0  0  0
  1  2  1  0
  2 13  1  0
  2  3  2  0
  4  1  1  0
  5 10  2  0
  5  1  1  0
  6  8  2  0
  7  6  1  0
  7  9  2  0
  8 12  1  0
  8 10  1  0
  9  5  1  0
 11  6  1  0
 14 13  1  0
 15 14  1  0
 16 17  1  0
 16 14  1  0
 18 16  1  0
 19 17  1  0
 20 21  1  0
 20 18  1  0
 21 19  1  0
M  RAD  8   7   2   9   2  10   2  11   2  13   3  16   2  17   3  18   3
M  RAD  3  19   3  20   3  21   3
M  END
>  <vina_score>  (2) 
-6.4429999999999996

>  <pose_id>  (2) 
2

$$$$

     RDKit          3D

 21 22  0  0  0  0  0  0  0  0999 V2000
   17.5690   12.3870   15.0000 N   0  0  0  0  0  0  0  0  0  0  0  0
   17.9110   12.7650   16.2860 C   0  0  0  0  0  0  0  0  0  0  0  0
   17.7250   13.8600   16.8060 O   0  0  0  0  0  0  0  0  0  0  0  0
   17.8350   11.4280   14.7850 H   0  0  0  0  0  0  0  0  0  0  0  0
   16.9540   13.1500   13.9950 C   0  0  0  0  0  0  0  0  0  0  0  0
   15.8650   14.7440   11.9270 C   0  0  0  0  0  0  0  0  0  0  0  0
   15.0390   13.9610   12.7450 C   0  0  0  0  0  3  0  0  0  0  0  0
   17.2460   14.7170   12.1600 C   0  0  0  0  0  0  0  0  0  0  0  0
   15.5790   13.1720   13.7680 C   0  0  0  0  0  3  0  0  0  0  0  0
   17.7850   13.9290   13.1830 C   0  0  0  0  0  3  0  0  0  0  0  0
   15.2540   15.5780   10.8380 C   0  0  0  0  0  1  0  0  0  0  0  0
   18.3410   15.6500   11.2010 Cl  0  0  0  0  0  0  0  0  0  0  0  0
   18.5440   11.6070   17.0770 C   0  0  0  0  0  2  0  0  0  0  0  0
   19.6000   12.1220   17.9860 N   0  0  0  0  0  0  0  0  0  0  0  0
   19.6860   13.1250   17.7960 H   0  0  0  0  0  0  0  0  0  0  0  0
   19.2940   11.9550   19.4170 C   0  0  0  0  0  3  0  0  0  0  0  0
   20.5010   11.4040   20.1990 C   0  0  0  0  0  2  0  0  0  0  0  0
   18.0160   11.1610   19.7160 C   0  0  0  0  0  2  0  0  0  0  0  0
   20.1180   10.7950   21.5520 C   0  0  0  0  0  2  0  0  0  0  0  0
   17.6510   11.2210   21.2040 C   0  0  0  0  0  2  0  0  0  0  0  0
   18.8540   11.4160   22.1280 C   0  0  0  0  0  2  0  0  0  0  0  0
  1  2  1  0
  2  3  2  0
  2 13  1  0
  4  1  1  0
  5  1  1  0
  6  8  2  0
  6  7  1  0
  7  9  2  0
  8 10  1  0
  9  5  1  0
 10  5  2  0
 11  6  1  0
 12  8  1  0
 13 14  1  0
 14 16  1  0
 15 14  1  0
 16 18  1  0
 16 17  1  0
 17 19  1  0
 18 20  1  0
 19 21  1  0
 20 21  1  0
M  RAD  8   7   2   9   2  10   2  11   2  13   3  16   2  17   3  18   3
M  RAD  3  19   3  20   3  21   3
M  END
>  <vina_score>  (3) 
-6.4210000000000003

>  <pose_id>  (3) 
3

$$$$

     RDKit          3D

 21 22  0  0  0  0  0  0  0  0999 V2000
   18.1550   13.3240   14.4850 N   0  0  0  0  0  0  0  0  0  0  0  0
   17.8120   13.7900   15.7420 C   0  0  0  0  0  0  0  0  0  0  0  0
   17.5350   14.9450   16.0490 O   0  0  0  0  0  0  0  0  0  0  0  0
   18.3560   12.3260   14.4740 H   0  0  0  0  0  0  0  0  0  0  0  0
   18.2820   14.0440   13.2860 C   0  0  0  0  0  0  0  0  0  0  0  0
   18.3710   15.5050   10.8670 C   0  0  0  0  0  0  0  0  0  0  0  0
   19.5480   15.0670   11.4880 C   0  0  0  0  0  3  0  0  0  0  0  0
   17.1460   15.2010   11.4760 C   0  0  0  0  0  0  0  0  0  0  0  0
   19.5030   14.3440   12.6860 C   0  0  0  0  0  3  0  0  0  0  0  0
   17.1020   14.4780   12.6730 C   0  0  0  0  0  3  0  0  0  0  0  0
   18.4550   16.2800    9.5820 C   0  0  0  0  0  1  0  0  0  0  0  0
   15.6450   15.7010   10.7800 Cl  0  0  0  0  0  0  0  0  0  0  0  0
   17.7570   12.6570   16.7810 C   0  0  0  0  0  2  0  0  0  0  0  0
   18.9820   12.6700   17.6210 N   0  0  0  0  0  0  0  0  0  0  0  0
   19.0740   13.6210   17.9900 H   0  0  0  0  0  0  0  0  0  0  0  0
   18.9340   11.7420   18.7640 C   0  0  0  0  0  3  0  0  0  0  0  0
   17.4850   11.4120   19.1720 C   0  0  0  0  0  2  0  0  0  0  0  0
   19.7790   12.1620   19.9730 C   0  0  0  0  0  2  0  0  0  0  0  0
   17.3710   10.8410   20.5900 C   0  0  0  0  0  2  0  0  0  0  0  0
   19.8530   11.0470   21.0240 C   0  0  0  0  0  2  0  0  0  0  0  0
   18.6370   10.1180   21.0250 C   0  0  0  0  0  2  0  0  0  0  0  0
  1  2  1  0
  2  3  2  0
  2 13  1  0
  4  1  1  0
  5  1  1  0
  6  8  2  0
  6  7  1  0
  7  9  2  0
  8 10  1  0
  9  5  1  0
 10  5  2  0
 11  6  1  0
 12  8  1  0
 13 14  1  0
 14 15  1  0
 14 16  1  0
 16 17  1  0
 16 18  1  0
 17 19  1  0
 18 20  1  0
 19 21  1  0
 20 21  1  0
M  RAD  8   7   2   9   2  10   2  11   2  13   3  16   2  17   3  18   3
M  RAD  3  19   3  20   3  21   3
M  END
>  <vina_score>  (4) 
-6.407

>  <pose_id>  (4) 
4

$$$$

     RDKit          3D

 21 22  0  0  0  0  0  0  0  0999 V2000
   19.5500   13.9760   13.2830 N   0  0  0  0  0  0  0  0  0  0  0  0
   19.8080   12.6260   13.4370 C   0  0  0  0  0  0  0  0  0  0  0  0
   19.4160   11.7130   12.7170 O   0  0  0  0  0  0  0  0  0  0  0  0
   19.9720   14.5460   14.0140 H   0  0  0  0  0  0  0  0  0  0  0  0
   18.7830   14.6160   12.2960 C   0  0  0  0  0  0  0  0  0  0  0  0
   17.1000   15.8420   10.3820 C   0  0  0  0  0  0  0  0  0  0  0  0
   18.4920   15.9920   10.3200 C   0  0  0  0  0  3  0  0  0  0  0  0
   16.5620   15.0680   11.4190 C   0  0  0  0  0  0  0  0  0  0  0  0
   19.3240   15.3850   11.2680 C   0  0  0  0  0  3  0  0  0  0  0  0
   17.3940   14.4620   12.3660 C   0  0  0  0  0  3  0  0  0  0  0  0
   16.2360   16.5080    9.3490 C   0  0  0  0  0  1  0  0  0  0  0  0
   14.8570   14.8290   11.5740 Cl  0  0  0  0  0  0  0  0  0  0  0  0
   20.7270   12.3490   14.6400 C   0  0  0  0  0  2  0  0  0  0  0  0
   22.0310   13.0370   14.4600 N   0  0  0  0  0  0  0  0  0  0  0  0
   22.5910   12.8240   15.2910 H   0  0  0  0  0  0  0  0  0  0  0  0
   22.7860   12.5920   13.2770 C   0  0  0  0  0  3  0  0  0  0  0  0
   23.3100   11.1520   13.4430 C   0  0  0  0  0  2  0  0  0  0  0  0
   23.8940   13.5470   12.8190 C   0  0  0  0  0  2  0  0  0  0  0  0
   24.4510   10.8090   12.4780 C   0  0  0  0  0  2  0  0  0  0  0  0
   24.4800   13.1260   11.4660 C   0  0  0  0  0  2  0  0  0  0  0  0
   24.3860   11.6240   11.1940 C   0  0  0  0  0  2  0  0  0  0  0  0
  1  2  1  0
  1  4  1  0
  2 13  1  0
  3  2  2  0
  5 10  2  0
  5  1  1  0
  6  8  2  0
  7  6  1  0
  7  9  2  0
  8 12  1  0
  8 10  1  0
  9  5  1  0
 11  6  1  0
 14 13  1  0
 14 15  1  0
 16 17  1  0
 16 14  1  0
 18 16  1  0
 19 17  1  0
 20 18  1  0
 21 20  1  0
 21 19  1  0
M  RAD  8   7   2   9   2  10   2  11   2  13   3  16   2  17   3  18   3
M  RAD  3  19   3  20   3  21   3
M  END
>  <vina_score>  (5) 
-6.3650000000000002

>  <pose_id>  (5) 
5

$$$$
