
     RDKit          3D

 24 25  0  0  1  0  0  0  0  0999 V2000
   21.4600   11.3000   14.8840 N   0  0  0  0  0  0  0  0  0  0  0  0
   20.6240   11.4250   13.7950 C   0  0  0  0  0  0  0  0  0  0  0  0
   20.9590   11.1530   12.6460 O   0  0  0  0  0  0  0  0  0  0  0  0
   21.1580   11.7900   15.7230 H   0  0  0  0  0  0  0  0  0  0  0  0
   22.8720   11.0190   14.7290 C   0  0  0  0  0  2  0  0  0  0  0  0
   23.7130   12.2910   14.8540 C   0  0  0  0  0  2  0  0  0  0  0  0
   24.4590   12.5610   13.6600 O   0  0  0  0  0  0  0  0  0  0  0  0
   23.8230   13.5000   12.8030 C   0  0  0  0  0  1  0  0  0  0  0  0
   19.2180   11.9090   14.1620 C   0  0  0  0  0  2  0  0  0  0  0  0
   18.6480   12.6590   13.0250 N   0  0  0  0  0  0  0  0  0  0  0  0
   17.6600   12.4300   12.9200 H   0  0  0  0  0  0  0  0  0  0  0  0
   18.7680   14.1270   13.1320 C   0  0  0  0  0  3  0  0  0  0  0  0
   17.5910   14.7710   13.8650 C   0  0  0  0  0  0  0  0  0  0  0  0
   17.7340   15.9420   14.6300 C   0  0  0  0  0  3  0  0  0  0  0  0
   16.3090   14.2060   13.7440 C   0  0  0  0  0  3  0  0  0  0  0  0
   16.6330   16.5150   15.2700 C   0  0  0  0  0  3  0  0  0  0  0  0
   15.2090   14.7810   14.3830 C   0  0  0  0  0  3  0  0  0  0  0  0
   15.3730   15.9340   15.1470 C   0  0  0  0  0  3  0  0  0  0  0  0
   19.2190   14.8560   11.8600 C   0  0  0  0  0  0  0  0  0  0  0  0
   20.5620   15.0300   11.4830 C   0  0  0  0  0  3  0  0  0  0  0  0
   18.2280   15.4010   11.0170 C   0  0  0  0  0  3  0  0  0  0  0  0
   20.8970   15.7100   10.3080 C   0  0  0  0  0  3  0  0  0  0  0  0
   18.5640   16.0800    9.8430 C   0  0  0  0  0  3  0  0  0  0  0  0
   19.9000   16.2340    9.4900 C   0  0  0  0  0  3  0  0  0  0  0  0
  1  4  1  0
  2  9  1  0
  2  1  1  0
  3  2  2  0
  5  6  1  0
  5  1  1  0
  7  6  1  0
  8  7  1  0
 10  9  1  0
 11 10  1  0
 12 10  1  0
 12 13  1  0
 13 14  2  0
 14 16  1  0
 15 13  1  0
 15 17  2  0
 17 18  1  0
 18 16  2  0
 19 12  1  0
 20 19  2  0
 21 19  1  0
 22 20  1  0
 23 21  2  0
 24 23  1  0
 24 22  2  0
M  RAD  8   5   3   6   3   8   2   9   3  12   2  14   2  15   2  16   2
M  RAD  7  17   2  18   2  20   2  21   2  22   2  23   2  24   2
M  END
>  <vina_score>  (1) 
-5.9749999999999996

>  <pose_id>  (1) 
1

$$$$

     RDKit          3D

 24 25  0  0  1  0  0  0  0  0999 V2000
   19.5150   11.6080   14.3350 N   0  0  0  0  0  0  0  0  0  0  0  0
   19.9700   10.6850   13.4180 C   0  0  0  0  0  0  0  0  0  0  0  0
   19.4910   10.5470   12.2970 O   0  0  0  0  0  0  0  0  0  0  0  0
   19.8150   11.4530   15.2950 H   0  0  0  0  0  0  0  0  0  0  0  0
   18.2990   12.3620   14.1130 C   0  0  0  0  0  2  0  0  0  0  0  0
   18.6020   13.7830   13.6320 C   0  0  0  0  0  2  0  0  0  0  0  0
   18.2930   13.9570   12.2430 O   0  0  0  0  0  0  0  0  0  0  0  0
   18.4350   15.3010   11.8030 C   0  0  0  0  0  1  0  0  0  0  0  0
   21.1600    9.8620   13.9240 C   0  0  0  0  0  2  0  0  0  0  0  0
   22.3480   10.1680   13.1040 N   0  0  0  0  0  0  0  0  0  0  0  0
   22.0730   10.2930   12.1300 H   0  0  0  0  0  0  0  0  0  0  0  0
   23.0940   11.3710   13.5250 C   0  0  0  0  0  3  0  0  0  0  0  0
   23.3450   12.3510   12.3790 C   0  0  0  0  0  0  0  0  0  0  0  0
   24.4280   12.2090   11.4940 C   0  0  0  0  0  3  0  0  0  0  0  0
   22.4450   13.4110   12.1670 C   0  0  0  0  0  3  0  0  0  0  0  0
   24.6150   13.1120   10.4440 C   0  0  0  0  0  3  0  0  0  0  0  0
   22.6330   14.3110   11.1170 C   0  0  0  0  0  3  0  0  0  0  0  0
   23.7200   14.1620   10.2580 C   0  0  0  0  0  3  0  0  0  0  0  0
   24.2970   11.1240   14.4440 C   0  0  0  0  0  0  0  0  0  0  0  0
   24.7400   12.0280   15.4260 C   0  0  0  0  0  3  0  0  0  0  0  0
   25.0170    9.9210   14.2920 C   0  0  0  0  0  3  0  0  0  0  0  0
   25.8490   11.7350   16.2260 C   0  0  0  0  0  3  0  0  0  0  0  0
   26.1240    9.6290   15.0920 C   0  0  0  0  0  3  0  0  0  0  0  0
   26.5390   10.5380   16.0600 C   0  0  0  0  0  3  0  0  0  0  0  0
  1  4  1  0
  2  9  1  0
  2  1  1  0
  3  2  2  0
  5  1  1  0
  6  5  1  0
  7  6  1  0
  8  7  1  0
 10  9  1  0
 11 10  1  0
 12 10  1  0
 12 19  1  0
 13 12  1  0
 14 13  2  0
 15 13  1  0
 16 14  1  0
 17 15  2  0
 18 16  2  0
 18 17  1  0
 19 20  2  0
 20 22  1  0
 21 19  1  0
 21 23  2  0
 23 24  1  0
 24 22  2  0
M  RAD  8   5   3   6   3   8   2   9   3  12   2  14   2  15   2  16   2
M  RAD  7  17   2  18   2  20   2  21   2  22   2  23   2  24   2
M  END
>  <vina_score>  (2) 
-5.9059999999999997

>  <pose_id>  (2) 
2

$$$$

     RDKit          3D

 24 25  0  0  1  0  0  0  0  0999 V2000
   22.2980   12.0930   15.0380 N   0  0  0  0  0  0  0  0  0  0  0  0
   21.1740   11.6520   14.3740 C   0  0  0  0  0  0  0  0  0  0  0  0
   21.1700   10.6970   13.6040 O   0  0  0  0  0  0  0  0  0  0  0  0
   22.2300   13.0280   15.4360 H   0  0  0  0  0  0  0  0  0  0  0  0
   23.6150   11.5780   14.7280 C   0  0  0  0  0  2  0  0  0  0  0  0
   24.4750   12.6280   14.0220 C   0  0  0  0  0  2  0  0  0  0  0  0
   23.7120   13.4140   13.0980 O   0  0  0  0  0  0  0  0  0  0  0  0
   24.0720   13.1880   11.7420 C   0  0  0  0  0  1  0  0  0  0  0  0
   19.9130   12.4540   14.7140 C   0  0  0  0  0  2  0  0  0  0  0  0
   20.0090   13.7950   14.1040 N   0  0  0  0  0  0  0  0  0  0  0  0
   20.8770   13.8720   13.5740 H   0  0  0  0  0  0  0  0  0  0  0  0
   18.8920   14.1440   13.2020 C   0  0  0  0  0  3  0  0  0  0  0  0
   19.3540   14.8170   11.9100 C   0  0  0  0  0  0  0  0  0  0  0  0
   18.4480   15.3640   10.9850 C   0  0  0  0  0  3  0  0  0  0  0  0
   20.7300   14.9370   11.6470 C   0  0  0  0  0  3  0  0  0  0  0  0
   18.9060   15.9910    9.8240 C   0  0  0  0  0  3  0  0  0  0  0  0
   21.1850   15.5650   10.4870 C   0  0  0  0  0  3  0  0  0  0  0  0
   20.2730   16.0900    9.5750 C   0  0  0  0  0  3  0  0  0  0  0  0
   17.6690   14.7860   13.8700 C   0  0  0  0  0  0  0  0  0  0  0  0
   17.7080   15.9870   14.5990 C   0  0  0  0  0  3  0  0  0  0  0  0
   16.4270   14.1290   13.7580 C   0  0  0  0  0  3  0  0  0  0  0  0
   16.5500   16.5110   15.1840 C   0  0  0  0  0  3  0  0  0  0  0  0
   15.2710   14.6540   14.3410 C   0  0  0  0  0  3  0  0  0  0  0  0
   15.3340   15.8460   15.0540 C   0  0  0  0  0  3  0  0  0  0  0  0
  1  4  1  0
  2  9  1  0
  2  1  1  0
  3  2  2  0
  5  1  1  0
  6  5  1  0
  7  6  1  0
  8  7  1  0
 10  9  1  0
 11 10  1  0
 12 19  1  0
 12 10  1  0
 13 12  1  0
 14 13  2  0
 15 13  1  0
 16 14  1  0
 17 15  2  0
 18 16  2  0
 18 17  1  0
 19 20  2  0
 20 22  1  0
 21 19  1  0
 21 23  2  0
 23 24  1  0
 24 22  2  0
M  RAD  8   5   3   6   3   8   2   9   3  12   2  14   2  15   2  16   2
M  RAD  7  17   2  18   2  20   2  21   2  22   2  23   2  24   2
M  END
>  <vina_score>  (3) 
-5.8079999999999998

>  <pose_id>  (3) 
3

$$$$

     RDKit          3D

 24 25  0  0  1  0  0  0  0  0999 V2000
   18.2270   13.7070   13.6220 N   0  0  0  0  0  0  0  0  0  0  0  0
   19.1150   13.7330   14.6760 C   0  0  0  0  0  0  0  0  0  0  0  0
   19.0490   14.5360   15.6010 O   0  0  0  0  0  0  0  0  0  0  0  0
   18.5330   13.1760   12.8090 H   0  0  0  0  0  0  0  0  0  0  0  0
   17.2530   14.7580   13.4240 C   0  0  0  0  0  2  0  0  0  0  0  0
   17.6890   15.7250   12.3220 C   0  0  0  0  0  2  0  0  0  0  0  0
   18.2600   15.0400   11.2000 O   0  0  0  0  0  0  0  0  0  0  0  0
   18.3470   15.8490   10.0350 C   0  0  0  0  0  1  0  0  0  0  0  0
   20.1830   12.6360   14.5990 C   0  0  0  0  0  2  0  0  0  0  0  0
   21.5140   13.2590   14.4650 N   0  0  0  0  0  0  0  0  0  0  0  0
   21.9990   13.2340   15.3610 H   0  0  0  0  0  0  0  0  0  0  0  0
   22.3890   12.6320   13.4540 C   0  0  0  0  0  3  0  0  0  0  0  0
   23.6360   11.9870   14.0600 C   0  0  0  0  0  0  0  0  0  0  0  0
   24.3580   12.5870   15.1060 C   0  0  0  0  0  3  0  0  0  0  0  0
   24.0600   10.7310   13.5910 C   0  0  0  0  0  3  0  0  0  0  0  0
   25.4800   11.9590   15.6500 C   0  0  0  0  0  3  0  0  0  0  0  0
   25.1820   10.1040   14.1370 C   0  0  0  0  0  3  0  0  0  0  0  0
   25.8920   10.7200   15.1650 C   0  0  0  0  0  3  0  0  0  0  0  0
   22.6350   13.4510   12.1800 C   0  0  0  0  0  0  0  0  0  0  0  0
   23.6000   13.1320   11.2100 C   0  0  0  0  0  3  0  0  0  0  0  0
   21.8530   14.6050   11.9690 C   0  0  0  0  0  3  0  0  0  0  0  0
   23.7690   13.9290   10.0730 C   0  0  0  0  0  3  0  0  0  0  0  0
   22.0220   15.4010   10.8330 C   0  0  0  0  0  3  0  0  0  0  0  0
   22.9810   15.0610    9.8850 C   0  0  0  0  0  3  0  0  0  0  0  0
  1  2  1  0
  2  3  2  0
  4  1  1  0
  5  1  1  0
  6  5  1  0
  7  6  1  0
  8  7  1  0
  9  2  1  0
 10  9  1  0
 10 11  1  0
 12 13  1  0
 12 10  1  0
 13 14  2  0
 14 16  1  0
 15 13  1  0
 15 17  2  0
 17 18  1  0
 18 16  2  0
 19 12  1  0
 20 19  2  0
 21 19  1  0
 22 20  1  0
 23 21  2  0
 24 22  2  0
 24 23  1  0
M  RAD  8   5   3   6   3   8   2   9   3  12   2  14   2  15   2  16   2
M  RAD  7  17   2  18   2  20   2  21   2  22   2  23   2  24   2
M  END
>  <vina_score>  (4) 
-5.7030000000000003

>  <pose_id>  (4) 
4

$$$$

     RDKit          3D

 24 25  0  0  1  0  0  0  0  0999 V2000
   21.0960   11.7740   14.7690 N   0  0  0  0  0  0  0  0  0  0  0  0
   20.2570   11.2770   13.7960 C   0  0  0  0  0  0  0  0  0  0  0  0
   20.6470   10.6420   12.8210 O   0  0  0  0  0  0  0  0  0  0  0  0
   20.6890   12.4860   15.3720 H   0  0  0  0  0  0  0  0  0  0  0  0
   22.5350   11.7510   14.6150 C   0  0  0  0  0  2  0  0  0  0  0  0
   23.1740   10.6660   15.4830 C   0  0  0  0  0  2  0  0  0  0  0  0
   22.6220   10.6420   16.8060 O   0  0  0  0  0  0  0  0  0  0  0  0
   23.1930    9.6360   17.6320 C   0  0  0  0  0  1  0  0  0  0  0  0
   18.7760   11.5670   14.0630 C   0  0  0  0  0  2  0  0  0  0  0  0
   18.2680   12.4960   13.0360 N   0  0  0  0  0  0  0  0  0  0  0  0
   17.2540   12.4160   12.9690 H   0  0  0  0  0  0  0  0  0  0  0  0
   18.5980   13.9160   13.2710 C   0  0  0  0  0  3  0  0  0  0  0  0
   17.4840   14.6800   13.9860 C   0  0  0  0  0  0  0  0  0  0  0  0
   16.1400   14.2710   13.9320 C   0  0  0  0  0  3  0  0  0  0  0  0
   17.8080   15.8070   14.7630 C   0  0  0  0  0  3  0  0  0  0  0  0
   15.1510   14.9810   14.6160 C   0  0  0  0  0  3  0  0  0  0  0  0
   16.8180   16.5140   15.4470 C   0  0  0  0  0  3  0  0  0  0  0  0
   15.4900   16.1020   15.3710 C   0  0  0  0  0  3  0  0  0  0  0  0
   19.2410   14.6580   12.0910 C   0  0  0  0  0  0  0  0  0  0  0  0
   18.5170   15.3350   11.0950 C   0  0  0  0  0  3  0  0  0  0  0  0
   20.6470   14.6530   11.9870 C   0  0  0  0  0  3  0  0  0  0  0  0
   19.1730   15.9870   10.0460 C   0  0  0  0  0  3  0  0  0  0  0  0
   21.3020   15.3050   10.9390 C   0  0  0  0  0  3  0  0  0  0  0  0
   20.5630   15.9730    9.9690 C   0  0  0  0  0  3  0  0  0  0  0  0
  1  4  1  0
  2  9  1  0
  2  1  1  0
  3  2  2  0
  5  1  1  0
  5  6  1  0
  6  7  1  0
  7  8  1  0
 10  9  1  0
 11 10  1  0
 12 10  1  0
 12 13  1  0
 13 15  1  0
 14 13  2  0
 14 16  1  0
 15 17  2  0
 16 18  2  0
 18 17  1  0
 19 12  1  0
 20 19  2  0
 21 19  1  0
 22 20  1  0
 23 21  2  0
 24 22  2  0
 24 23  1  0
M  RAD  8   5   3   6   3   8   2   9   3  12   2  14   2  15   2  16   2
M  RAD  7  17   2  18   2  20   2  21   2  22   2  23   2  24   2
M  END
>  <vina_score>  (5) 
-5.6689999999999996

>  <pose_id>  (5) 
5

$$$$
