
     RDKit          3D

 33 33  0  0  1  0  0  0  0  0999 V2000
   24.1800    8.3160   16.7010 C   0  0  0  0  0  3  0  0  0  0  0  0
   23.0420    8.4110   17.7560 C   0  0  0  0  0  3  0  0  0  0  0  0
   22.8630    9.8410   18.2990 C   0  0  0  0  0  3  0  0  0  0  0  0
   21.5730   10.4500   17.7510 C   0  0  0  0  0  0  0  0  0  0  0  0
   20.4730   10.4650   18.2790 O   0  0  0  0  0  0  0  0  0  0  0  0
   21.7250   10.9670   16.5090 O   0  0  0  0  0  0  0  0  0  0  0  0
   21.5150   11.9160   16.6430 H   0  0  0  0  0  0  0  0  0  0  0  0
   23.9990   10.6460   17.9920 O   0  0  0  0  0  0  0  0  0  0  0  0
   24.4470   10.7820   18.8530 H   0  0  0  0  0  0  0  0  0  0  0  0
   21.7880    7.9870   17.1890 O   0  0  0  0  0  0  0  0  0  0  0  0
   21.9690    7.8230   16.2350 H   0  0  0  0  0  0  0  0  0  0  0  0
   23.6110    7.9770   15.4220 O   0  0  0  0  0  0  0  0  0  0  0  0
   23.8840    8.9180   14.3840 C   0  0  0  0  0  3  0  0  0  0  0  0
   24.3420   10.1240   14.9970 O   0  0  0  0  0  0  0  0  0  0  0  0
   22.5920    9.2270   13.5790 C   0  0  0  0  0  3  0  0  0  0  0  0
   24.9020   11.0560   14.0560 C   0  0  0  0  0  3  0  0  0  0  0  0
   22.6970   10.5970   12.8690 C   0  0  0  0  0  3  0  0  0  0  0  0
   24.1690   11.0040   12.6920 C   0  0  0  0  0  3  0  0  0  0  0  0
   22.3490    8.1830   12.6200 O   0  0  0  0  0  0  0  0  0  0  0  0
   23.0260    7.4970   12.7760 H   0  0  0  0  0  0  0  0  0  0  0  0
   24.9190   12.4260   14.7580 C   0  0  0  0  0  2  0  0  0  0  0  0
   23.8180   12.6310   15.6320 O   0  0  0  0  0  0  0  0  0  0  0  0
   24.0510   13.3610   16.2350 H   0  0  0  0  0  0  0  0  0  0  0  0
   21.9780   11.5990   13.6010 O   0  0  0  0  0  0  0  0  0  0  0  0
   21.0650   11.2870   13.7400 H   0  0  0  0  0  0  0  0  0  0  0  0
   24.2980   12.1810   11.9030 O   0  0  0  0  0  0  0  0  0  0  0  0
   25.0080   12.0220   11.2470 H   0  0  0  0  0  0  0  0  0  0  0  0
   25.2050    7.2070   17.0340 C   0  0  0  0  0  3  0  0  0  0  0  0
   24.8810    6.5750   18.2870 O   0  0  0  0  0  0  0  0  0  0  0  0
   25.2190    5.6590   18.1930 H   0  0  0  0  0  0  0  0  0  0  0  0
   26.6450    7.7260   17.1150 C   0  0  0  0  0  2  0  0  0  0  0  0
   26.6200    9.1400   16.9040 O   0  0  0  0  0  0  0  0  0  0  0  0
   26.7860    9.2890   15.9550 H   0  0  0  0  0  0  0  0  0  0  0  0
  1 12  1  0
  1 28  1  0
  2  1  1  1
  2 10  1  0
  2  3  1  0
  3  4  1  0
  4  5  2  0
  6  7  1  0
  6  4  1  0
  8  3  1  0
  8  9  1  0
 11 10  1  0
 13 14  1  1
 13 12  1  0
 15 19  1  0
 15 13  1  1
 16 21  1  0
 16 14  1  0
 17 15  1  1
 17 24  1  0
 18 26  1  0
 18 17  1  1
 18 16  1  0
 19 20  1  0
 21 22  1  0
 22 23  1  0
 24 25  1  0
 27 26  1  0
 28 31  1  0
 28 29  1  0
 30 29  1  0
 32 31  1  0
 33 32  1  0
M  END
>  <vina_score>  (1) 
-4.7400000000000002

>  <pose_id>  (1) 
1

$$$$

     RDKit          3D

 33 33  0  0  1  0  0  0  0  0999 V2000
   24.0550   10.1070   14.2190 C   0  0  0  0  0  3  0  0  0  0  0  0
   23.6800   10.1930   12.7120 C   0  0  0  0  0  3  0  0  0  0  0  0
   24.7960   10.8310   11.8640 C   0  0  0  0  0  3  0  0  0  0  0  0
   24.3610   12.2170   11.3890 C   0  0  0  0  0  0  0  0  0  0  0  0
   23.8790   12.5170   10.3090 O   0  0  0  0  0  0  0  0  0  0  0  0
   24.6180   13.1870   12.2990 O   0  0  0  0  0  0  0  0  0  0  0  0
   25.2790   12.7610   12.8870 H   0  0  0  0  0  0  0  0  0  0  0  0
   25.1490    9.9860   10.7720 O   0  0  0  0  0  0  0  0  0  0  0  0
   26.0920    9.7640   10.9240 H   0  0  0  0  0  0  0  0  0  0  0  0
   23.4060    8.8820   12.1820 O   0  0  0  0  0  0  0  0  0  0  0  0
   23.4060    8.2760   12.9570 H   0  0  0  0  0  0  0  0  0  0  0  0
   23.2410   11.0360   14.9600 O   0  0  0  0  0  0  0  0  0  0  0  0
   22.1040   11.5260   14.2490 C   0  0  0  0  0  3  0  0  0  0  0  0
   22.2680   12.9350   14.0810 O   0  0  0  0  0  0  0  0  0  0  0  0
   20.8040   11.2680   15.0600 C   0  0  0  0  0  3  0  0  0  0  0  0
   21.3280   13.5050   13.1530 C   0  0  0  0  0  3  0  0  0  0  0  0
   19.6840   12.2440   14.6350 C   0  0  0  0  0  3  0  0  0  0  0  0
   19.9510   12.7950   13.2250 C   0  0  0  0  0  3  0  0  0  0  0  0
   20.3770    9.9060   14.8820 O   0  0  0  0  0  0  0  0  0  0  0  0
   20.3200    9.7550   13.9190 H   0  0  0  0  0  0  0  0  0  0  0  0
   21.3180   15.0200   13.4190 C   0  0  0  0  0  2  0  0  0  0  0  0
   21.2410   15.3560   14.7970 O   0  0  0  0  0  0  0  0  0  0  0  0
   21.8620   16.0900   14.9580 H   0  0  0  0  0  0  0  0  0  0  0  0
   19.5630   13.3150   15.5830 O   0  0  0  0  0  0  0  0  0  0  0  0
   19.7370   12.9600   16.4750 H   0  0  0  0  0  0  0  0  0  0  0  0
   18.8580   13.5720   12.7470 O   0  0  0  0  0  0  0  0  0  0  0  0
   19.2270   14.2950   12.1990 H   0  0  0  0  0  0  0  0  0  0  0  0
   25.5260   10.5010   14.4870 C   0  0  0  0  0  3  0  0  0  0  0  0
   26.3220    9.3330   14.7650 O   0  0  0  0  0  0  0  0  0  0  0  0
   26.6870    9.0730   13.8930 H   0  0  0  0  0  0  0  0  0  0  0  0
   25.6810   11.4780   15.6570 C   0  0  0  0  0  2  0  0  0  0  0  0
   25.3060   12.7800   15.2020 O   0  0  0  0  0  0  0  0  0  0  0  0
   25.0670   13.3000   15.9910 H   0  0  0  0  0  0  0  0  0  0  0  0
  1 28  1  0
  1 12  1  1
  2 10  1  0
  2  1  1  1
  3  8  1  0
  3  2  1  1
  3  4  1  0
  4  6  1  0
  5  4  2  0
  6  7  1  0
  8  9  1  0
 10 11  1  0
 13 12  1  0
 15 13  1  6
 13 14  1  6
 15 19  1  0
 18 16  1  0
 16 21  1  0
 16 14  1  1
 17 15  1  1
 17 24  1  0
 18 26  1  0
 17 18  1  0
 20 19  1  0
 21 22  1  0
 22 23  1  0
 24 25  1  0
 27 26  1  0
 28 29  1  0
 28 31  1  0
 30 29  1  0
 32 31  1  0
 32 33  1  0
M  END
>  <vina_score>  (2) 
-4.6589999999999998

>  <pose_id>  (2) 
2

$$$$

     RDKit          3D

 33 33  0  0  1  0  0  0  0  0999 V2000
   24.2360   10.2820   14.7980 C   0  0  0  0  0  3  0  0  0  0  0  0
   24.9400   10.8470   13.5310 C   0  0  0  0  0  3  0  0  0  0  0  0
   24.4260   10.1940   12.2340 C   0  0  0  0  0  3  0  0  0  0  0  0
   24.2830   11.2520   11.1400 C   0  0  0  0  0  0  0  0  0  0  0  0
   25.1640   11.7180   10.4350 O   0  0  0  0  0  0  0  0  0  0  0  0
   23.0190   11.7240   11.0300 O   0  0  0  0  0  0  0  0  0  0  0  0
   23.1270   12.4930   10.4300 H   0  0  0  0  0  0  0  0  0  0  0  0
   23.2000    9.5040   12.4650 O   0  0  0  0  0  0  0  0  0  0  0  0
   23.0200    9.0310   11.6250 H   0  0  0  0  0  0  0  0  0  0  0  0
   24.7370   12.2690   13.4290 O   0  0  0  0  0  0  0  0  0  0  0  0
   25.5130   12.6810   13.8720 H   0  0  0  0  0  0  0  0  0  0  0  0
   23.4810   11.3360   15.4270 O   0  0  0  0  0  0  0  0  0  0  0  0
   22.0650   11.2060   15.3010 C   0  0  0  0  0  3  0  0  0  0  0  0
   21.7790    9.8460   14.9720 O   0  0  0  0  0  0  0  0  0  0  0  0
   21.5360   12.1180   14.1600 C   0  0  0  0  0  3  0  0  0  0  0  0
   20.3810    9.5230   15.0790 C   0  0  0  0  0  3  0  0  0  0  0  0
   20.1800   11.6030   13.6250 C   0  0  0  0  0  3  0  0  0  0  0  0
   19.4840   10.7200   14.6720 C   0  0  0  0  0  3  0  0  0  0  0  0
   21.4090   13.4710   14.6310 O   0  0  0  0  0  0  0  0  0  0  0  0
   21.7960   13.4920   15.5270 H   0  0  0  0  0  0  0  0  0  0  0  0
   20.1730    8.2240   14.2810 C   0  0  0  0  0  2  0  0  0  0  0  0
   20.9240    8.1690   13.0760 O   0  0  0  0  0  0  0  0  0  0  0  0
   21.7060    7.6100   13.2410 H   0  0  0  0  0  0  0  0  0  0  0  0
   20.3640   10.8850   12.3960 O   0  0  0  0  0  0  0  0  0  0  0  0
   20.1960    9.9390   12.5610 H   0  0  0  0  0  0  0  0  0  0  0  0
   18.1670   10.3630   14.2680 O   0  0  0  0  0  0  0  0  0  0  0  0
   17.8980    9.5820   14.7940 H   0  0  0  0  0  0  0  0  0  0  0  0
   25.2400    9.7700   15.8560 C   0  0  0  0  0  3  0  0  0  0  0  0
   24.6510    9.7960   17.1700 O   0  0  0  0  0  0  0  0  0  0  0  0
   25.3220   10.2430   17.7290 H   0  0  0  0  0  0  0  0  0  0  0  0
   26.5380   10.5840   15.8950 C   0  0  0  0  0  2  0  0  0  0  0  0
   26.3670   11.6450   16.8400 O   0  0  0  0  0  0  0  0  0  0  0  0
   25.5840   12.1520   16.5600 H   0  0  0  0  0  0  0  0  0  0  0  0
  1 12  1  1
  1 28  1  0
  2 10  1  0
  2  1  1  0
  3  4  1  0
  3  8  1  1
  3  2  1  0
  5  4  2  0
  6  4  1  0
  7  6  1  0
  9  8  1  0
 10 11  1  0
 13 12  1  0
 16 14  1  0
 13 14  1  0
 15 19  1  0
 15 13  1  0
 16 21  1  0
 17 24  1  0
 17 15  1  6
 18 17  1  6
 18 26  1  0
 18 16  1  0
 19 20  1  0
 22 23  1  0
 22 21  1  0
 24 25  1  0
 26 27  1  0
 28 31  1  0
 28 29  1  0
 29 30  1  0
 31 32  1  0
 33 32  1  0
M  END
>  <vina_score>  (3) 
-4.5549999999999997

>  <pose_id>  (3) 
3

$$$$

     RDKit          3D

 33 33  0  0  1  0  0  0  0  0999 V2000
   23.9810   11.2230   12.6380 C   0  0  0  0  0  3  0  0  0  0  0  0
   23.1090   12.4990   12.4660 C   0  0  0  0  0  3  0  0  0  0  0  0
   21.6110   12.2210   12.6900 C   0  0  0  0  0  3  0  0  0  0  0  0
   21.1470   12.8860   13.9860 C   0  0  0  0  0  0  0  0  0  0  0  0
   20.6330   13.9850   14.1170 O   0  0  0  0  0  0  0  0  0  0  0  0
   21.4140   12.1390   15.0830 O   0  0  0  0  0  0  0  0  0  0  0  0
   20.6310   12.3030   15.6520 H   0  0  0  0  0  0  0  0  0  0  0  0
   21.3500   10.8200   12.6930 O   0  0  0  0  0  0  0  0  0  0  0  0
   20.7050   10.6860   11.9660 H   0  0  0  0  0  0  0  0  0  0  0  0
   23.5200   13.5230   13.3920 O   0  0  0  0  0  0  0  0  0  0  0  0
   23.2670   14.3770   12.9740 H   0  0  0  0  0  0  0  0  0  0  0  0
   24.8820   11.4140   13.7460 O   0  0  0  0  0  0  0  0  0  0  0  0
   24.6880   10.5050   14.8300 C   0  0  0  0  0  3  0  0  0  0  0  0
   23.4730    9.7930   14.5900 O   0  0  0  0  0  0  0  0  0  0  0  0
   24.5570   11.2790   16.1700 C   0  0  0  0  0  3  0  0  0  0  0  0
   23.3000    8.6650   15.4660 C   0  0  0  0  0  3  0  0  0  0  0  0
   23.8020   10.4370   17.2240 C   0  0  0  0  0  3  0  0  0  0  0  0
   23.8780    8.9420   16.8780 C   0  0  0  0  0  3  0  0  0  0  0  0
   25.8600   11.6430   16.6570 O   0  0  0  0  0  0  0  0  0  0  0  0
   26.2040   12.3270   16.0510 H   0  0  0  0  0  0  0  0  0  0  0  0
   21.8070    8.2960   15.4110 C   0  0  0  0  0  2  0  0  0  0  0  0
   20.9480    9.4190   15.2690 O   0  0  0  0  0  0  0  0  0  0  0  0
   21.4880   10.2210   15.3970 H   0  0  0  0  0  0  0  0  0  0  0  0
   22.4370   10.8660   17.3270 O   0  0  0  0  0  0  0  0  0  0  0  0
   21.9430   10.5160   16.5620 H   0  0  0  0  0  0  0  0  0  0  0  0
   23.3290    8.1330   17.9120 O   0  0  0  0  0  0  0  0  0  0  0  0
   24.0570    7.9010   18.5250 H   0  0  0  0  0  0  0  0  0  0  0  0
   24.8610   10.9350   11.4000 C   0  0  0  0  0  3  0  0  0  0  0  0
   24.8100   12.0370   10.4730 O   0  0  0  0  0  0  0  0  0  0  0  0
   23.8520   12.1790   10.3170 H   0  0  0  0  0  0  0  0  0  0  0  0
   24.4510    9.6610   10.6550 C   0  0  0  0  0  2  0  0  0  0  0  0
   23.6670    8.8600   11.5440 O   0  0  0  0  0  0  0  0  0  0  0  0
   23.4770    8.0240   11.0810 H   0  0  0  0  0  0  0  0  0  0  0  0
  1 12  1  1
  1  2  1  0
  3  2  1  1
  2 10  1  0
  3  8  1  0
  3  4  1  0
  4  5  2  0
  4  6  1  0
  6  7  1  0
  9  8  1  0
 11 10  1  0
 13 12  1  0
 13 15  1  0
 13 14  1  0
 16 14  1  0
 15 19  1  0
 15 17  1  1
 16 21  1  0
 16 18  1  0
 17 24  1  0
 18 17  1  1
 18 26  1  0
 20 19  1  0
 22 23  1  0
 22 21  1  0
 25 24  1  0
 26 27  1  0
 28 31  1  0
  1 28  1  0
 28 29  1  0
 30 29  1  0
 31 32  1  0
 33 32  1  0
M  END
>  <vina_score>  (4) 
-4.5549999999999997

>  <pose_id>  (4) 
4

$$$$

     RDKit          3D

 33 33  0  0  1  0  0  0  0  0999 V2000
   21.5570   10.0290   14.1080 C   0  0  0  0  0  3  0  0  0  0  0  0
   22.2260   11.0200   13.1140 C   0  0  0  0  0  3  0  0  0  0  0  0
   22.7420   12.2920   13.8120 C   0  0  0  0  0  3  0  0  0  0  0  0
   23.9410   11.9500   14.6970 C   0  0  0  0  0  0  0  0  0  0  0  0
   25.0690   11.6530   14.3400 O   0  0  0  0  0  0  0  0  0  0  0  0
   23.6340   11.9430   16.0150 O   0  0  0  0  0  0  0  0  0  0  0  0
   24.1850   12.6740   16.3690 H   0  0  0  0  0  0  0  0  0  0  0  0
   21.7000   12.9210   14.5550 O   0  0  0  0  0  0  0  0  0  0  0  0
   22.1360   13.2350   15.3760 H   0  0  0  0  0  0  0  0  0  0  0  0
   23.3360   10.3940   12.4430 O   0  0  0  0  0  0  0  0  0  0  0  0
   23.3170   10.7370   11.5210 H   0  0  0  0  0  0  0  0  0  0  0  0
   22.2430    8.7630   14.0440 O   0  0  0  0  0  0  0  0  0  0  0  0
   22.7980    8.3280   15.2850 C   0  0  0  0  0  3  0  0  0  0  0  0
   22.3790    9.2440   16.2970 O   0  0  0  0  0  0  0  0  0  0  0  0
   24.3500    8.3360   15.2170 C   0  0  0  0  0  3  0  0  0  0  0  0
   22.6480    8.7730   17.6290 C   0  0  0  0  0  3  0  0  0  0  0  0
   24.9660    8.4350   16.6320 C   0  0  0  0  0  3  0  0  0  0  0  0
   23.9630    7.9560   17.6930 C   0  0  0  0  0  3  0  0  0  0  0  0
   24.8190    7.1520   14.5480 O   0  0  0  0  0  0  0  0  0  0  0  0
   25.6900    7.3740   14.1660 H   0  0  0  0  0  0  0  0  0  0  0  0
   22.5760   10.0060   18.5490 C   0  0  0  0  0  2  0  0  0  0  0  0
   21.6370   10.9820   18.1200 O   0  0  0  0  0  0  0  0  0  0  0  0
   20.7670   10.5460   18.0540 H   0  0  0  0  0  0  0  0  0  0  0  0
   25.3890    9.7790   16.9030 O   0  0  0  0  0  0  0  0  0  0  0  0
   26.3310    9.8620   16.6640 H   0  0  0  0  0  0  0  0  0  0  0  0
   24.5560    7.8880   18.9850 O   0  0  0  0  0  0  0  0  0  0  0  0
   25.0020    7.0190   19.0610 H   0  0  0  0  0  0  0  0  0  0  0  0
   20.0780    9.7450   13.7580 C   0  0  0  0  0  3  0  0  0  0  0  0
   19.6970   10.4450   12.5570 O   0  0  0  0  0  0  0  0  0  0  0  0
   19.9080   11.3840   12.7460 H   0  0  0  0  0  0  0  0  0  0  0  0
   19.1090   10.1450   14.8750 C   0  0  0  0  0  2  0  0  0  0  0  0
   19.8410   10.8950   15.8490 O   0  0  0  0  0  0  0  0  0  0  0  0
   20.2040   10.2550   16.4870 H   0  0  0  0  0  0  0  0  0  0  0  0
  1 12  1  0
  2 10  1  0
  3  2  1  0
  1  2  1  1
  3  8  1  1
  3  4  1  0
  4  6  1  0
  5  4  2  0
  6  7  1  0
  8  9  1  0
 11 10  1  0
 13 12  1  0
 13 14  1  0
 16 14  1  6
 15 19  1  0
 15 13  1  0
 17 15  1  1
 18 16  1  0
 16 21  1  0
 17 24  1  0
 18 17  1  0
 18 26  1  0
 20 19  1  0
 22 21  1  0
 23 22  1  0
 25 24  1  0
 26 27  1  0
 28  1  1  0
 28 31  1  0
 29 30  1  0
 28 29  1  0
 31 32  1  0
 32 33  1  0
M  END
>  <vina_score>  (5) 
-4.5510000000000002

>  <pose_id>  (5) 
5

$$$$
