
     RDKit          3D

 22 23  0  0  1  0  0  0  0  0999 V2000
   19.5070   11.5850   18.6850 C   0  0  0  0  0  2  0  0  0  0  0  0
   18.5840   11.3650   19.8620 C   0  0  0  0  0  0  0  0  0  0  0  0
   18.2080   11.4310   22.2670 C   0  0  0  0  0  0  0  0  0  0  0  0
   16.9080   10.9630   22.0630 C   0  0  0  0  0  3  0  0  0  0  0  0
   19.0400   11.6300   21.1660 C   0  0  0  0  0  3  0  0  0  0  0  0
   16.4430   10.6920   20.7750 C   0  0  0  0  0  3  0  0  0  0  0  0
   17.2790   10.8910   19.6770 C   0  0  0  0  0  3  0  0  0  0  0  0
   18.5380   11.6530   23.5770 O   0  0  0  0  0  0  0  0  0  0  0  0
   17.5620   12.3120   24.3750 C   0  0  0  0  0  1  0  0  0  0  0  0
   19.0330   12.7040   17.8690 N   0  0  0  0  0  0  0  0  0  0  0  0
   19.7460   13.4310   17.8750 H   0  0  0  0  0  0  0  0  0  0  0  0
   18.7530   12.2970   16.4810 C   0  0  0  0  0  2  0  0  0  0  0  0
   17.2860   12.5330   16.0540 C   0  0  0  0  0  0  0  0  0  0  0  0
   16.3950   11.7120   16.2900 O   0  0  0  0  0  0  0  0  0  0  0  0
   17.0000   13.7480   15.4050 N   0  0  0  0  0  0  0  0  0  0  0  0
   15.5990   13.9630   14.9850 C   0  0  0  0  0  3  0  0  0  0  0  0
   18.0450   14.6580   14.8900 C   0  0  0  0  0  3  0  0  0  0  0  0
   15.2060   15.4450   14.9700 C   0  0  0  0  0  2  0  0  0  0  0  0
   17.5960   16.1260   14.8850 C   0  0  0  0  0  2  0  0  0  0  0  0
   16.2250   16.3180   14.2520 C   0  0  0  0  0  2  0  0  0  0  0  0
   15.2770   13.2700   13.6560 C   0  0  0  0  0  1  0  0  0  0  0  0
   18.5700   14.2220   13.5180 C   0  0  0  0  0  1  0  0  0  0  0  0
  1  2  1  0
  2  5  2  0
  3  8  1  0
  4  3  2  0
  5  3  1  0
  6  4  1  0
  7  2  1  0
  7  6  2  0
  8  9  1  0
 10 11  1  0
 10  1  1  0
 12 10  1  0
 13 14  2  0
 13 12  1  0
 15 13  1  0
 16 21  1  0
 16 15  1  0
 17 22  1  0
 17 15  1  0
 18 16  1  0
 19 17  1  0
 20 19  1  0
 20 18  1  0
M  RAD  8   1   3   4   2   5   2   6   2   7   2   9   2  12   3  16   2
M  RAD  6  17   2  18   3  19   3  20   3  21   2  22   2
M  END
>  <vina_score>  (1) 
-6.7380000000000004

>  <pose_id>  (1) 
1

$$$$

     RDKit          3D

 22 23  0  0  1  0  0  0  0  0999 V2000
   22.5850   15.2220   11.0700 C   0  0  0  0  0  2  0  0  0  0  0  0
   21.1080   15.3980   10.8030 C   0  0  0  0  0  0  0  0  0  0  0  0
   18.8020   15.1310   11.5390 C   0  0  0  0  0  0  0  0  0  0  0  0
   18.3680   15.7030   10.3410 C   0  0  0  0  0  3  0  0  0  0  0  0
   20.1710   14.9810   11.7650 C   0  0  0  0  0  3  0  0  0  0  0  0
   19.2870   16.1180    9.3760 C   0  0  0  0  0  3  0  0  0  0  0  0
   20.6530   15.9640    9.6050 C   0  0  0  0  0  3  0  0  0  0  0  0
   17.8000   14.7640   12.3960 O   0  0  0  0  0  0  0  0  0  0  0  0
   16.4720   15.0830   11.9950 C   0  0  0  0  0  1  0  0  0  0  0  0
   23.0530   13.9480   10.5200 N   0  0  0  0  0  0  0  0  0  0  0  0
   23.0480   14.0150    9.5040 H   0  0  0  0  0  0  0  0  0  0  0  0
   24.4080   13.6090   10.9870 C   0  0  0  0  0  2  0  0  0  0  0  0
   24.5640   12.1270   11.3990 C   0  0  0  0  0  0  0  0  0  0  0  0
   24.7170   11.2280   10.5680 O   0  0  0  0  0  0  0  0  0  0  0  0
   24.5540   11.8460   12.7790 N   0  0  0  0  0  0  0  0  0  0  0  0
   24.6880   10.4260   13.1680 C   0  0  0  0  0  3  0  0  0  0  0  0
   24.1460   12.8310   13.8030 C   0  0  0  0  0  3  0  0  0  0  0  0
   25.3670   10.2490   14.5320 C   0  0  0  0  0  2  0  0  0  0  0  0
   24.8440   12.5990   15.1510 C   0  0  0  0  0  2  0  0  0  0  0  0
   24.7750   11.1490   15.6070 C   0  0  0  0  0  2  0  0  0  0  0  0
   23.3570    9.6720   13.0870 C   0  0  0  0  0  1  0  0  0  0  0  0
   22.6240   12.9080   13.9600 C   0  0  0  0  0  1  0  0  0  0  0  0
  2  1  1  0
  2  5  2  0
  3  5  1  0
  3  8  1  0
  4  3  2  0
  6  7  2  0
  6  4  1  0
  7  2  1  0
  9  8  1  0
 10 12  1  0
 10  1  1  0
 11 10  1  0
 12 13  1  0
 13 15  1  0
 14 13  2  0
 15 16  1  0
 15 17  1  0
 16 21  1  0
 16 18  1  0
 17 22  1  0
 17 19  1  0
 18 20  1  0
 19 20  1  0
M  RAD  8   1   3   4   2   5   2   6   2   7   2   9   2  12   3  16   2
M  RAD  6  17   2  18   3  19   3  20   3  21   2  22   2
M  END
>  <vina_score>  (2) 
-6.7199999999999998

>  <pose_id>  (2) 
2

$$$$

     RDKit          3D

 22 23  0  0  1  0  0  0  0  0999 V2000
   22.3600   15.5230   12.0630 C   0  0  0  0  0  2  0  0  0  0  0  0
   23.1110   14.2120   12.0340 C   0  0  0  0  0  0  0  0  0  0  0  0
   24.0650   12.3210   13.2370 C   0  0  0  0  0  0  0  0  0  0  0  0
   24.5040   11.7880   12.0230 C   0  0  0  0  0  3  0  0  0  0  0  0
   23.3700   13.5310   13.2380 C   0  0  0  0  0  3  0  0  0  0  0  0
   24.2580   12.4560   10.8220 C   0  0  0  0  0  3  0  0  0  0  0  0
   23.5650   13.6650   10.8270 C   0  0  0  0  0  3  0  0  0  0  0  0
   24.3760   11.5700   14.3380 O   0  0  0  0  0  0  0  0  0  0  0  0
   24.8990   12.2710   15.4590 C   0  0  0  0  0  1  0  0  0  0  0  0
   21.0740   15.3580   12.7440 N   0  0  0  0  0  0  0  0  0  0  0  0
   20.6810   16.2820   12.9160 H   0  0  0  0  0  0  0  0  0  0  0  0
   20.1270   14.5560   11.9530 C   0  0  0  0  0  2  0  0  0  0  0  0
   18.7270   15.2010   11.8280 C   0  0  0  0  0  0  0  0  0  0  0  0
   18.5370   16.2310   11.1750 O   0  0  0  0  0  0  0  0  0  0  0  0
   17.6630   14.5430   12.4730 N   0  0  0  0  0  0  0  0  0  0  0  0
   16.3300   15.1720   12.3630 C   0  0  0  0  0  3  0  0  0  0  0  0
   17.8580   13.4530   13.4510 C   0  0  0  0  0  3  0  0  0  0  0  0
   15.1870   14.1510   12.4190 C   0  0  0  0  0  2  0  0  0  0  0  0
   16.6810   12.4680   13.4750 C   0  0  0  0  0  2  0  0  0  0  0  0
   15.3320   13.1660   13.5700 C   0  0  0  0  0  2  0  0  0  0  0  0
   16.1360   16.3060   13.3750 C   0  0  0  0  0  1  0  0  0  0  0  0
   18.1820   13.9820   14.8530 C   0  0  0  0  0  1  0  0  0  0  0  0
  1 10  1  0
  2  1  1  0
  2  5  2  0
  3  5  1  0
  3  8  1  0
  4  3  2  0
  6  7  2  0
  6  4  1  0
  7  2  1  0
  8  9  1  0
 10 11  1  0
 12 10  1  0
 13 12  1  0
 13 15  1  0
 14 13  2  0
 15 17  1  0
 16 18  1  0
 16 15  1  0
 16 21  1  0
 17 19  1  0
 17 22  1  0
 18 20  1  0
 19 20  1  0
M  RAD  8   1   3   4   2   5   2   6   2   7   2   9   2  12   3  16   2
M  RAD  6  17   2  18   3  19   3  20   3  21   2  22   2
M  END
>  <vina_score>  (3) 
-6.4870000000000001

>  <pose_id>  (3) 
3

$$$$

     RDKit          3D

 22 23  0  0  1  0  0  0  0  0999 V2000
   16.5290   12.3600   15.8030 C   0  0  0  0  0  2  0  0  0  0  0  0
   16.1880   13.8020   15.5060 C   0  0  0  0  0  0  0  0  0  0  0  0
   16.0560   15.6340   13.9060 C   0  0  0  0  0  0  0  0  0  0  0  0
   15.5740   16.4660   14.9190 C   0  0  0  0  0  3  0  0  0  0  0  0
   16.3610   14.3060   14.2030 C   0  0  0  0  0  3  0  0  0  0  0  0
   15.4010   15.9800   16.2170 C   0  0  0  0  0  3  0  0  0  0  0  0
   15.7090   14.6530   16.5100 C   0  0  0  0  0  3  0  0  0  0  0  0
   16.1820   16.2350   12.6830 O   0  0  0  0  0  0  0  0  0  0  0  0
   15.8350   15.4490   11.5490 C   0  0  0  0  0  1  0  0  0  0  0  0
   16.4100   12.0930   17.2370 N   0  0  0  0  0  0  0  0  0  0  0  0
   15.4830   11.7120   17.4170 H   0  0  0  0  0  0  0  0  0  0  0  0
   17.4340   11.1480   17.7120 C   0  0  0  0  0  2  0  0  0  0  0  0
   18.2660   11.6860   18.8990 C   0  0  0  0  0  0  0  0  0  0  0  0
   19.2570   12.4020   18.7340 O   0  0  0  0  0  0  0  0  0  0  0  0
   17.8220   11.3460   20.1920 N   0  0  0  0  0  0  0  0  0  0  0  0
   18.6290   11.8500   21.3240 C   0  0  0  0  0  3  0  0  0  0  0  0
   16.7960   10.3150   20.4510 C   0  0  0  0  0  3  0  0  0  0  0  0
   17.7920   12.0840   22.5880 C   0  0  0  0  0  2  0  0  0  0  0  0
   15.9980   10.5910   21.7330 C   0  0  0  0  0  2  0  0  0  0  0  0
   16.8900   10.9050   22.9250 C   0  0  0  0  0  2  0  0  0  0  0  0
   19.8540   10.9730   21.6010 C   0  0  0  0  0  1  0  0  0  0  0  0
   17.3800    8.8990   20.4420 C   0  0  0  0  0  1  0  0  0  0  0  0
  1 10  1  0
  2  1  1  0
  2  7  1  0
  3  5  1  0
  3  4  2  0
  4  6  1  0
  5  2  2  0
  6  7  2  0
  8  3  1  0
  9  8  1  0
 10 11  1  0
 10 12  1  0
 12 13  1  0
 13 15  1  0
 14 13  2  0
 15 17  1  0
 15 16  1  0
 16 21  1  0
 16 18  1  0
 17 22  1  0
 17 19  1  0
 18 20  1  0
 19 20  1  0
M  RAD  8   1   3   4   2   5   2   6   2   7   2   9   2  12   3  16   2
M  RAD  6  17   2  18   3  19   3  20   3  21   2  22   2
M  END
>  <vina_score>  (4) 
-6.431

>  <pose_id>  (4) 
4

$$$$

     RDKit          3D

 22 23  0  0  1  0  0  0  0  0999 V2000
   22.1110   12.4520   14.0220 C   0  0  0  0  0  2  0  0  0  0  0  0
   22.7910   12.8260   12.7250 C   0  0  0  0  0  0  0  0  0  0  0  0
   22.9330   14.2880   10.7820 C   0  0  0  0  0  0  0  0  0  0  0  0
   24.0200   13.5440   10.3180 C   0  0  0  0  0  3  0  0  0  0  0  0
   22.3230   13.9260   11.9840 C   0  0  0  0  0  3  0  0  0  0  0  0
   24.4920   12.4470   11.0420 C   0  0  0  0  0  3  0  0  0  0  0  0
   23.8790   12.0880   12.2410 C   0  0  0  0  0  3  0  0  0  0  0  0
   22.5690   15.3330    9.9770 O   0  0  0  0  0  0  0  0  0  0  0  0
   21.4890   16.1400   10.4310 C   0  0  0  0  0  1  0  0  0  0  0  0
   21.2660   13.5530   14.4890 N   0  0  0  0  0  0  0  0  0  0  0  0
   21.1560   14.2200   13.7280 H   0  0  0  0  0  0  0  0  0  0  0  0
   19.9420   13.0850   14.9330 C   0  0  0  0  0  2  0  0  0  0  0  0
   18.8650   13.1430   13.8250 C   0  0  0  0  0  0  0  0  0  0  0  0
   19.0110   12.5730   12.7400 O   0  0  0  0  0  0  0  0  0  0  0  0
   17.6880   13.8560   14.1190 N   0  0  0  0  0  0  0  0  0  0  0  0
   16.6670   13.9210   13.0520 C   0  0  0  0  0  3  0  0  0  0  0  0
   17.5500   14.7440   15.2920 C   0  0  0  0  0  3  0  0  0  0  0  0
   15.2400   14.0360   13.6030 C   0  0  0  0  0  2  0  0  0  0  0  0
   16.1020   14.8330   15.7950 C   0  0  0  0  0  2  0  0  0  0  0  0
   15.1080   15.1070   14.6760 C   0  0  0  0  0  2  0  0  0  0  0  0
   16.9730   15.0120   12.0200 C   0  0  0  0  0  1  0  0  0  0  0  0
   18.1480   16.1330   15.0420 C   0  0  0  0  0  1  0  0  0  0  0  0
  1 10  1  0
  2  1  1  0
  3  5  1  0
  4  3  2  0
  4  6  1  0
  5  2  2  0
  6  7  2  0
  7  2  1  0
  8  9  1  0
  8  3  1  0
 10 12  1  0
 11 10  1  0
 13 15  1  0
 13 12  1  0
 14 13  2  0
 15 17  1  0
 16 21  1  0
 16 18  1  0
 16 15  1  0
 17 22  1  0
 17 19  1  0
 18 20  1  0
 20 19  1  0
M  RAD  8   1   3   4   2   5   2   6   2   7   2   9   2  12   3  16   2
M  RAD  6  17   2  18   3  19   3  20   3  21   2  22   2
M  END
>  <vina_score>  (5) 
-6.2270000000000003

>  <pose_id>  (5) 
5

$$$$
