
     RDKit          3D

 18 19  0  0  0  0  0  0  0  0999 V2000
   21.4370   15.0670   13.2700 O   0  0  0  0  0  0  0  0  0  0  0  0
   20.6720   14.3560   12.6320 C   0  0  0  0  0  0  0  0  0  0  0  0
   20.4820   12.9790   12.7710 N   0  0  0  0  0  0  0  0  0  0  0  0
   21.0030   11.9620   13.5440 C   0  0  0  0  0  0  0  0  0  0  0  0
   20.0730   10.5540   13.5340 S   0  0  0  0  0  0  0  0  0  0  0  0
   22.1850   12.0920   14.2200 N   0  0  0  0  0  0  0  0  0  0  0  0
   23.1960   13.1300   14.0350 C   0  0  0  0  0  2  0  0  0  0  0  0
   24.4890   12.5200   14.5620 C   0  0  0  0  0  2  0  0  0  0  0  0
   23.9930   11.6470   15.7010 C   0  0  0  0  0  2  0  0  0  0  0  0
   22.7120   11.0630   15.1250 C   0  0  0  0  0  2  0  0  0  0  0  0
   19.6670   12.6290   12.2820 H   0  0  0  0  0  0  0  0  0  0  0  0
   19.8690   15.0090   11.5620 C   0  0  0  0  0  0  0  0  0  0  0  0
   18.4780   15.0400   11.7590 C   0  0  0  0  0  3  0  0  0  0  0  0
   20.4050   15.5610   10.3900 C   0  0  0  0  0  0  0  0  0  0  0  0
   17.6380   15.6360   10.8170 C   0  0  0  0  0  3  0  0  0  0  0  0
   19.5580   16.1590    9.4500 C   0  0  0  0  0  3  0  0  0  0  0  0
   18.1790   16.2000    9.6640 C   0  0  0  0  0  3  0  0  0  0  0  0
   22.0880   15.5140   10.0100 Cl  0  0  0  0  0  0  0  0  0  0  0  0
  2  3  1  0
  2  1  2  0
  3  4  1  0
  4  6  1  0
  5  4  2  0
  6 10  1  0
  7  6  1  0
  7  8  1  0
  8  9  1  0
 10  9  1  0
 11  3  1  0
 12 13  2  0
 12  2  1  0
 14 12  1  0
 15 13  1  0
 16 17  1  0
 16 14  2  0
 17 15  2  0
 18 14  1  0
M  RAD  8   7   3   8   3   9   3  10   3  13   2  15   2  16   2  17   2
M  END
>  <vina_score>  (1) 
-6.2220000000000004

>  <pose_id>  (1) 
1

$$$$

     RDKit          3D

 18 19  0  0  0  0  0  0  0  0999 V2000
   19.7570   13.4450   12.6900 O   0  0  0  0  0  0  0  0  0  0  0  0
   19.5690   14.6090   12.3600 C   0  0  0  0  0  0  0  0  0  0  0  0
   20.3880   15.4010   11.5490 N   0  0  0  0  0  0  0  0  0  0  0  0
   21.5890   15.2610   10.8880 C   0  0  0  0  0  0  0  0  0  0  0  0
   21.8720   16.4550    9.7280 S   0  0  0  0  0  0  0  0  0  0  0  0
   22.4740   14.2600   11.1840 N   0  0  0  0  0  0  0  0  0  0  0  0
   22.4630   13.3950   12.3610 C   0  0  0  0  0  2  0  0  0  0  0  0
   23.8960   12.8990   12.5000 C   0  0  0  0  0  2  0  0  0  0  0  0
   24.3430   12.7940   11.0520 C   0  0  0  0  0  2  0  0  0  0  0  0
   23.7130   14.0320   10.4310 C   0  0  0  0  0  2  0  0  0  0  0  0
   19.9490   16.2630   11.2470 H   0  0  0  0  0  0  0  0  0  0  0  0
   18.3560   15.2820   12.8970 C   0  0  0  0  0  0  0  0  0  0  0  0
   18.2430   15.3360   14.2970 C   0  0  0  0  0  3  0  0  0  0  0  0
   17.3360   15.8320   12.1090 C   0  0  0  0  0  0  0  0  0  0  0  0
   17.1460   15.9540   14.9010 C   0  0  0  0  0  3  0  0  0  0  0  0
   16.2390   16.4500   12.7190 C   0  0  0  0  0  3  0  0  0  0  0  0
   16.1450   16.5150   14.1110 C   0  0  0  0  0  3  0  0  0  0  0  0
   17.3340   15.7580   10.3840 Cl  0  0  0  0  0  0  0  0  0  0  0  0
  2  1  2  0
  2 12  1  0
  3  2  1  0
  4  6  1  0
  4  3  1  0
  5  4  2  0
  6  7  1  0
  7  8  1  0
  9  8  1  0
 10  9  1  0
 10  6  1  0
 11  3  1  0
 12 13  2  0
 13 15  1  0
 14 16  2  0
 14 12  1  0
 16 17  1  0
 17 15  2  0
 18 14  1  0
M  RAD  8   7   3   8   3   9   3  10   3  13   2  15   2  16   2  17   2
M  END
>  <vina_score>  (2) 
-5.931

>  <pose_id>  (2) 
2

$$$$

     RDKit          3D

 18 19  0  0  0  0  0  0  0  0999 V2000
   23.5600    9.8020   12.2730 O   0  0  0  0  0  0  0  0  0  0  0  0
   24.0000   10.8360   12.7570 C   0  0  0  0  0  0  0  0  0  0  0  0
   24.8250   10.9630   13.8780 N   0  0  0  0  0  0  0  0  0  0  0  0
   25.3980   10.1210   14.8070 C   0  0  0  0  0  0  0  0  0  0  0  0
   26.6370   10.8360   15.7030 S   0  0  0  0  0  0  0  0  0  0  0  0
   24.9650    8.8360   14.9940 N   0  0  0  0  0  0  0  0  0  0  0  0
   23.7210    8.2470   14.5060 C   0  0  0  0  0  2  0  0  0  0  0  0
   23.4540    7.0660   15.4310 C   0  0  0  0  0  2  0  0  0  0  0  0
   24.8580    6.5830   15.7500 C   0  0  0  0  0  2  0  0  0  0  0  0
   25.6200    7.8910   15.9060 C   0  0  0  0  0  2  0  0  0  0  0  0
   25.2260   11.8870   13.9870 H   0  0  0  0  0  0  0  0  0  0  0  0
   23.5960   12.1160   12.1110 C   0  0  0  0  0  0  0  0  0  0  0  0
   24.2880   12.4660   10.9390 C   0  0  0  0  0  3  0  0  0  0  0  0
   22.6060   12.9770   12.6040 C   0  0  0  0  0  0  0  0  0  0  0  0
   23.9780   13.6430   10.2540 C   0  0  0  0  0  3  0  0  0  0  0  0
   22.2990   14.1550   11.9130 C   0  0  0  0  0  3  0  0  0  0  0  0
   22.9800   14.4850   10.7390 C   0  0  0  0  0  3  0  0  0  0  0  0
   21.7450   12.6830   14.0720 Cl  0  0  0  0  0  0  0  0  0  0  0  0
  1  2  2  0
  2  3  1  0
  3 11  1  0
  3  4  1  0
  4  6  1  0
  4  5  2  0
  6 10  1  0
  7  6  1  0
  7  8  1  0
  8  9  1  0
  9 10  1  0
 12 14  1  0
 12  2  1  0
 13 12  2  0
 14 18  1  0
 15 17  2  0
 15 13  1  0
 16 14  2  0
 17 16  1  0
M  RAD  8   7   3   8   3   9   3  10   3  13   2  15   2  16   2  17   2
M  END
>  <vina_score>  (3) 
-5.8799999999999999

>  <pose_id>  (3) 
3

$$$$

     RDKit          3D

 18 19  0  0  0  0  0  0  0  0999 V2000
   20.9270   14.6830   13.9660 O   0  0  0  0  0  0  0  0  0  0  0  0
   20.8270   14.4100   12.7780 C   0  0  0  0  0  0  0  0  0  0  0  0
   19.7520   14.6960   11.9310 N   0  0  0  0  0  0  0  0  0  0  0  0
   18.5140   15.2920   12.0410 C   0  0  0  0  0  0  0  0  0  0  0  0
   17.8230   15.7080   10.5580 S   0  0  0  0  0  0  0  0  0  0  0  0
   17.9020   15.4870   13.2500 N   0  0  0  0  0  0  0  0  0  0  0  0
   18.2670   14.8850   14.5290 C   0  0  0  0  0  2  0  0  0  0  0  0
   17.0000   14.9480   15.3710 C   0  0  0  0  0  2  0  0  0  0  0  0
   16.3630   16.2430   14.8980 C   0  0  0  0  0  2  0  0  0  0  0  0
   16.6310   16.2050   13.4020 C   0  0  0  0  0  2  0  0  0  0  0  0
   19.9590   14.5560   10.9490 H   0  0  0  0  0  0  0  0  0  0  0  0
   21.9520   13.6610   12.1530 C   0  0  0  0  0  0  0  0  0  0  0  0
   22.7080   14.3600   11.1950 C   0  0  0  0  0  3  0  0  0  0  0  0
   22.2800   12.3300   12.4430 C   0  0  0  0  0  0  0  0  0  0  0  0
   23.7890   13.7480   10.5580 C   0  0  0  0  0  3  0  0  0  0  0  0
   23.3660   11.7230   11.8010 C   0  0  0  0  0  3  0  0  0  0  0  0
   24.1210   12.4310   10.8650 C   0  0  0  0  0  3  0  0  0  0  0  0
   21.3770   11.3560   13.5470 Cl  0  0  0  0  0  0  0  0  0  0  0  0
  2  1  2  0
  3  4  1  0
  3  2  1  0
  4  6  1  0
  5  4  2  0
  6 10  1  0
  6  7  1  0
  7  8  1  0
  9  8  1  0
 10  9  1  0
 11  3  1  0
 12 14  1  0
 12  2  1  0
 13 12  2  0
 14 18  1  0
 15 17  2  0
 15 13  1  0
 16 14  2  0
 17 16  1  0
M  RAD  8   7   3   8   3   9   3  10   3  13   2  15   2  16   2  17   2
M  END
>  <vina_score>  (4) 
-5.8280000000000003

>  <pose_id>  (4) 
4

$$$$

     RDKit          3D

 18 19  0  0  0  0  0  0  0  0999 V2000
   24.7070   12.6630   14.2250 O   0  0  0  0  0  0  0  0  0  0  0  0
   23.8780   12.2690   13.4140 C   0  0  0  0  0  0  0  0  0  0  0  0
   23.2760   11.0090   13.3630 N   0  0  0  0  0  0  0  0  0  0  0  0
   23.3500    9.8270   14.0700 C   0  0  0  0  0  0  0  0  0  0  0  0
   22.0650    8.7740   13.7740 S   0  0  0  0  0  0  0  0  0  0  0  0
   24.3970    9.5390   14.9020 N   0  0  0  0  0  0  0  0  0  0  0  0
   25.6830   10.2290   14.9720 C   0  0  0  0  0  2  0  0  0  0  0  0
   26.6420    9.2170   15.5840 C   0  0  0  0  0  2  0  0  0  0  0  0
   25.7410    8.4540   16.5380 C   0  0  0  0  0  2  0  0  0  0  0  0
   24.4530    8.3340   15.7380 C   0  0  0  0  0  2  0  0  0  0  0  0
   22.4820   10.9620   12.7360 H   0  0  0  0  0  0  0  0  0  0  0  0
   23.4790   13.2140   12.3350 C   0  0  0  0  0  0  0  0  0  0  0  0
   24.1730   13.0980   11.1190 C   0  0  0  0  0  3  0  0  0  0  0  0
   22.4920   14.2000   12.4670 C   0  0  0  0  0  0  0  0  0  0  0  0
   23.8680   13.9320   10.0420 C   0  0  0  0  0  3  0  0  0  0  0  0
   22.1900   15.0330   11.3830 C   0  0  0  0  0  3  0  0  0  0  0  0
   22.8730   14.8970   10.1730 C   0  0  0  0  0  3  0  0  0  0  0  0
   21.6290   14.4810   13.9350 Cl  0  0  0  0  0  0  0  0  0  0  0  0
  2  1  2  0
  3  2  1  0
  3  4  1  0
  4  6  1  0
  5  4  2  0
  6  7  1  0
  6 10  1  0
  7  8  1  0
  8  9  1  0
 10  9  1  0
 11  3  1  0
 12 14  1  0
 12  2  1  0
 13 12  2  0
 14 18  1  0
 15 17  2  0
 15 13  1  0
 16 14  2  0
 17 16  1  0
M  RAD  8   7   3   8   3   9   3  10   3  13   2  15   2  16   2  17   2
M  END
>  <vina_score>  (5) 
-5.8099999999999996

>  <pose_id>  (5) 
5

$$$$
