
     RDKit          3D

 23 24  0  0  1  0  0  0  0  0999 V2000
   18.5140   14.6540   13.7220 N   0  0  0  0  0  0  0  0  0  0  0  0
   17.9500   15.6570   14.6320 C   0  0  0  0  0  1  0  0  0  0  0  0
   18.0550   14.8890   12.3330 C   0  0  0  0  0  2  0  0  0  0  0  0
   19.2010   15.2560   11.3960 C   0  0  0  0  0  0  0  0  0  0  0  0
   18.9970   15.8330   10.1210 C   0  0  0  0  0  0  0  0  0  0  0  0
   20.1110   16.1210    9.3130 C   0  0  0  0  0  3  0  0  0  0  0  0
   21.4080   15.8390    9.7500 C   0  0  0  0  0  3  0  0  0  0  0  0
   20.5190   14.9710   11.8140 C   0  0  0  0  0  3  0  0  0  0  0  0
   21.6120   15.2650   11.0010 C   0  0  0  0  0  3  0  0  0  0  0  0
   17.6220   16.1370    9.5940 C   0  0  0  0  0  1  0  0  0  0  0  0
   18.2730   13.2720   14.2120 C   0  0  0  0  0  3  0  0  0  0  0  0
   18.0620   13.2040   15.7290 C   0  0  0  0  0  1  0  0  0  0  0  0
   19.3900   12.2860   13.8000 C   0  0  0  0  0  0  0  0  0  0  0  0
   19.2180   11.3790   12.9870 O   0  0  0  0  0  0  0  0  0  0  0  0
   20.5980   12.5120   14.4350 N   0  0  0  0  0  0  0  0  0  0  0  0
   20.6270   13.1580   15.2130 H   0  0  0  0  0  0  0  0  0  0  0  0
   21.6950   11.5800   14.3230 C   0  0  0  0  0  2  0  0  0  0  0  0
   22.7060   12.0820   13.3220 C   0  0  0  0  0  0  0  0  0  0  0  0
   22.7430   11.5670   12.0170 C   0  0  0  0  0  3  0  0  0  0  0  0
   23.5910   13.1140   13.6710 C   0  0  0  0  0  3  0  0  0  0  0  0
   23.6560   12.0680   11.0830 C   0  0  0  0  0  3  0  0  0  0  0  0
   24.5010   13.6150   12.7360 C   0  0  0  0  0  3  0  0  0  0  0  0
   24.5330   13.0920   11.4440 C   0  0  0  0  0  3  0  0  0  0  0  0
  1 11  1  0
  1  2  1  0
  3  1  1  0
  4  8  2  0
  4  3  1  0
  5  4  1  0
  6  7  1  0
  6  5  2  0
  7  9  2  0
  9  8  1  0
 10  5  1  0
 11 12  1  0
 13 11  1  0
 13 15  1  0
 14 13  2  0
 15 16  1  0
 17 15  1  0
 18 20  1  0
 18 17  1  0
 19 18  2  0
 21 23  2  0
 21 19  1  0
 22 20  2  0
 23 22  1  0
M  RAD  8   2   2   3   3   6   2   7   2   8   2   9   2  10   2  11   2
M  RAD  7  12   2  17   3  19   2  20   2  21   2  22   2  23   2
M  END
>  <vina_score>  (1) 
-6.6139999999999999

>  <pose_id>  (1) 
1

$$$$

     RDKit          3D

 23 24  0  0  1  0  0  0  0  0999 V2000
   17.1340   15.6760   11.1570 N   0  0  0  0  0  0  0  0  0  0  0  0
   16.3760   16.0820    9.9680 C   0  0  0  0  0  1  0  0  0  0  0  0
   16.5060   16.2110   12.3870 C   0  0  0  0  0  2  0  0  0  0  0  0
   16.2070   15.1200   13.4100 C   0  0  0  0  0  0  0  0  0  0  0  0
   16.6040   15.2070   14.7640 C   0  0  0  0  0  0  0  0  0  0  0  0
   16.3060   14.1440   15.6350 C   0  0  0  0  0  3  0  0  0  0  0  0
   15.6320   13.0080   15.1790 C   0  0  0  0  0  3  0  0  0  0  0  0
   15.5370   13.9590   12.9680 C   0  0  0  0  0  3  0  0  0  0  0  0
   15.2460   12.9160   13.8450 C   0  0  0  0  0  3  0  0  0  0  0  0
   17.3500   16.3970   15.3030 C   0  0  0  0  0  1  0  0  0  0  0  0
   18.5780   16.0030   11.0240 C   0  0  0  0  0  3  0  0  0  0  0  0
   19.0460   16.0620    9.5650 C   0  0  0  0  0  1  0  0  0  0  0  0
   19.4860   15.0390   11.8210 C   0  0  0  0  0  0  0  0  0  0  0  0
   19.1170   13.9290   12.2010 O   0  0  0  0  0  0  0  0  0  0  0  0
   20.7490   15.5420   12.0750 N   0  0  0  0  0  0  0  0  0  0  0  0
   20.9320   16.5200   11.8870 H   0  0  0  0  0  0  0  0  0  0  0  0
   21.6650   14.8690   12.9660 C   0  0  0  0  0  2  0  0  0  0  0  0
   22.7400   14.1660   12.1760 C   0  0  0  0  0  0  0  0  0  0  0  0
   23.4860   13.1230   12.7470 C   0  0  0  0  0  3  0  0  0  0  0  0
   22.9710   14.5120   10.8360 C   0  0  0  0  0  3  0  0  0  0  0  0
   24.4530   12.4480   11.9930 C   0  0  0  0  0  3  0  0  0  0  0  0
   23.9360   13.8360   10.0840 C   0  0  0  0  0  3  0  0  0  0  0  0
   24.6750   12.8050   10.6630 C   0  0  0  0  0  3  0  0  0  0  0  0
  1  3  1  0
  2  1  1  0
  3  4  1  0
  4  5  1  0
  5 10  1  0
  5  6  2  0
  7  6  1  0
  8  4  2  0
  8  9  1  0
  9  7  2  0
 11 12  1  0
 11  1  1  0
 11 13  1  0
 13 15  1  0
 13 14  2  0
 15 17  1  0
 16 15  1  0
 18 19  2  0
 18 17  1  0
 20 18  1  0
 21 19  1  0
 22 23  1  0
 22 20  2  0
 23 21  2  0
M  RAD  8   2   2   3   3   6   2   7   2   8   2   9   2  10   2  11   2
M  RAD  7  12   2  17   3  19   2  20   2  21   2  22   2  23   2
M  END
>  <vina_score>  (2) 
-6.4489999999999998

>  <pose_id>  (2) 
2

$$$$

     RDKit          3D

 23 24  0  0  1  0  0  0  0  0999 V2000
   16.9180   15.0650   13.9690 N   0  0  0  0  0  0  0  0  0  0  0  0
   16.3250   16.3320   14.4130 C   0  0  0  0  0  1  0  0  0  0  0  0
   16.3930   14.6800   12.6380 C   0  0  0  0  0  2  0  0  0  0  0  0
   17.2230   15.2580   11.4970 C   0  0  0  0  0  0  0  0  0  0  0  0
   16.6480   15.9120   10.3830 C   0  0  0  0  0  0  0  0  0  0  0  0
   17.4870   16.3960    9.3640 C   0  0  0  0  0  3  0  0  0  0  0  0
   18.8740   16.2340    9.4360 C   0  0  0  0  0  3  0  0  0  0  0  0
   18.6250   15.0950   11.5440 C   0  0  0  0  0  3  0  0  0  0  0  0
   19.4420   15.5850   10.5270 C   0  0  0  0  0  3  0  0  0  0  0  0
   15.1620   16.0950   10.2450 C   0  0  0  0  0  1  0  0  0  0  0  0
   16.7830   14.0060   15.0020 C   0  0  0  0  0  3  0  0  0  0  0  0
   15.9660   14.4570   16.2190 C   0  0  0  0  0  1  0  0  0  0  0  0
   18.1470   13.4500   15.4720 C   0  0  0  0  0  0  0  0  0  0  0  0
   18.5030   13.4540   16.6490 O   0  0  0  0  0  0  0  0  0  0  0  0
   18.9330   12.9550   14.4470 N   0  0  0  0  0  0  0  0  0  0  0  0
   18.6570   13.1360   13.4900 H   0  0  0  0  0  0  0  0  0  0  0  0
   20.3080   12.5750   14.6670 C   0  0  0  0  0  2  0  0  0  0  0  0
   21.2020   13.2400   13.6510 C   0  0  0  0  0  0  0  0  0  0  0  0
   21.4570   14.6200   13.7120 C   0  0  0  0  0  3  0  0  0  0  0  0
   21.8370   12.4740   12.6610 C   0  0  0  0  0  3  0  0  0  0  0  0
   22.3210   15.2210   12.7900 C   0  0  0  0  0  3  0  0  0  0  0  0
   22.7010   13.0780   11.7420 C   0  0  0  0  0  3  0  0  0  0  0  0
   22.9430   14.4490   11.8080 C   0  0  0  0  0  3  0  0  0  0  0  0
  1  2  1  0
  1 11  1  0
  3  1  1  0
  4  8  2  0
  4  3  1  0
  5  4  1  0
  6  7  1  0
  6  5  2  0
  7  9  2  0
  9  8  1  0
 10  5  1  0
 11 13  1  0
 11 12  1  0
 13 14  2  0
 15 17  1  0
 15 13  1  0
 16 15  1  0
 18 19  2  0
 18 17  1  0
 20 18  1  0
 21 19  1  0
 22 23  1  0
 22 20  2  0
 23 21  2  0
M  RAD  8   2   2   3   3   6   2   7   2   8   2   9   2  10   2  11   2
M  RAD  7  12   2  17   3  19   2  20   2  21   2  22   2  23   2
M  END
>  <vina_score>  (3) 
-6.4459999999999997

>  <pose_id>  (3) 
3

$$$$

     RDKit          3D

 23 24  0  0  1  0  0  0  0  0999 V2000
   22.1120   13.4160   12.3880 N   0  0  0  0  0  0  0  0  0  0  0  0
   23.1610   12.7850   11.5790 C   0  0  0  0  0  1  0  0  0  0  0  0
   21.9800   14.8520   12.0470 C   0  0  0  0  0  2  0  0  0  0  0  0
   20.6480   15.1690   11.3760 C   0  0  0  0  0  0  0  0  0  0  0  0
   20.5540   15.7860   10.1070 C   0  0  0  0  0  0  0  0  0  0  0  0
   19.2840   16.0620    9.5710 C   0  0  0  0  0  3  0  0  0  0  0  0
   18.1210   15.7420   10.2770 C   0  0  0  0  0  3  0  0  0  0  0  0
   19.4610   14.8650   12.0760 C   0  0  0  0  0  3  0  0  0  0  0  0
   18.2090   15.1430   11.5290 C   0  0  0  0  0  3  0  0  0  0  0  0
   21.7730   16.1690    9.3140 C   0  0  0  0  0  1  0  0  0  0  0  0
   22.3080   13.1560   13.8380 C   0  0  0  0  0  3  0  0  0  0  0  0
   23.6920   12.5790   14.1610 C   0  0  0  0  0  1  0  0  0  0  0  0
   21.2140   12.2420   14.4360 C   0  0  0  0  0  0  0  0  0  0  0  0
   21.2890   11.0140   14.4310 O   0  0  0  0  0  0  0  0  0  0  0  0
   20.1390   12.9300   14.9680 N   0  0  0  0  0  0  0  0  0  0  0  0
   20.0580   13.9230   14.7880 H   0  0  0  0  0  0  0  0  0  0  0  0
   18.9400   12.2470   15.3930 C   0  0  0  0  0  2  0  0  0  0  0  0
   17.7250   12.8920   14.7770 C   0  0  0  0  0  0  0  0  0  0  0  0
   16.9710   12.2220   13.8000 C   0  0  0  0  0  3  0  0  0  0  0  0
   17.2990   14.1560   15.2150 C   0  0  0  0  0  3  0  0  0  0  0  0
   15.8210   12.8120   13.2650 C   0  0  0  0  0  3  0  0  0  0  0  0
   16.1490   14.7430   14.6800 C   0  0  0  0  0  3  0  0  0  0  0  0
   15.4110   14.0700   13.7070 C   0  0  0  0  0  3  0  0  0  0  0  0
  1 11  1  0
  2  1  1  0
  3  1  1  0
  4  3  1  0
  4  8  2  0
  5  4  1  0
  6  5  2  0
  6  7  1  0
  7  9  2  0
  9  8  1  0
 10  5  1  0
 11 12  1  0
 11 13  1  0
 13 15  1  0
 14 13  2  0
 15 17  1  0
 16 15  1  0
 18 20  1  0
 18 17  1  0
 19 18  2  0
 21 23  2  0
 21 19  1  0
 22 20  2  0
 23 22  1  0
M  RAD  8   2   2   3   3   6   2   7   2   8   2   9   2  10   2  11   2
M  RAD  7  12   2  17   3  19   2  20   2  21   2  22   2  23   2
M  END
>  <vina_score>  (4) 
-6.3200000000000003

>  <pose_id>  (4) 
4

$$$$

     RDKit          3D

 23 24  0  0  1  0  0  0  0  0999 V2000
   17.2560   14.8520   14.3470 N   0  0  0  0  0  0  0  0  0  0  0  0
   17.0460   16.1700   14.9550 C   0  0  0  0  0  1  0  0  0  0  0  0
   16.5850   14.7710   13.0280 C   0  0  0  0  0  2  0  0  0  0  0  0
   17.5000   15.1950   11.8840 C   0  0  0  0  0  0  0  0  0  0  0  0
   17.0150   15.7610   10.6820 C   0  0  0  0  0  0  0  0  0  0  0  0
   17.9280   16.1040    9.6690 C   0  0  0  0  0  3  0  0  0  0  0  0
   19.2990   15.8880    9.8330 C   0  0  0  0  0  3  0  0  0  0  0  0
   18.8880   14.9750   12.0240 C   0  0  0  0  0  3  0  0  0  0  0  0
   19.7790   15.3240   11.0110 C   0  0  0  0  0  3  0  0  0  0  0  0
   15.5490   15.9960   10.4450 C   0  0  0  0  0  1  0  0  0  0  0  0
   16.8910   13.7540   15.2790 C   0  0  0  0  0  3  0  0  0  0  0  0
   15.8340   14.1700   16.3090 C   0  0  0  0  0  1  0  0  0  0  0  0
   18.1160   13.1550   16.0070 C   0  0  0  0  0  0  0  0  0  0  0  0
   19.2550   13.1870   15.5430 O   0  0  0  0  0  0  0  0  0  0  0  0
   17.8130   12.5700   17.2240 N   0  0  0  0  0  0  0  0  0  0  0  0
   16.8420   12.4250   17.4670 H   0  0  0  0  0  0  0  0  0  0  0  0
   18.7890   11.7940   17.9520 C   0  0  0  0  0  2  0  0  0  0  0  0
   18.3410   11.5990   19.3790 C   0  0  0  0  0  0  0  0  0  0  0  0
   17.0600   11.1030   19.6690 C   0  0  0  0  0  3  0  0  0  0  0  0
   19.2240   11.8620   20.4380 C   0  0  0  0  0  3  0  0  0  0  0  0
   16.6690   10.8860   20.9950 C   0  0  0  0  0  3  0  0  0  0  0  0
   18.8310   11.6420   21.7610 C   0  0  0  0  0  3  0  0  0  0  0  0
   17.5550   11.1550   22.0380 C   0  0  0  0  0  3  0  0  0  0  0  0
  1  2  1  0
  1 11  1  0
  3  1  1  0
  4  8  2  0
  4  3  1  0
  5  4  1  0
  6  7  1  0
  6  5  2  0
  7  9  2  0
  9  8  1  0
 10  5  1  0
 11 13  1  0
 11 12  1  0
 13 15  1  0
 14 13  2  0
 15 16  1  0
 15 17  1  0
 17 18  1  0
 18 19  2  0
 18 20  1  0
 19 21  1  0
 20 22  2  0
 21 23  2  0
 22 23  1  0
M  RAD  8   2   2   3   3   6   2   7   2   8   2   9   2  10   2  11   2
M  RAD  7  12   2  17   3  19   2  20   2  21   2  22   2  23   2
M  END
>  <vina_score>  (5) 
-6.1239999999999997

>  <pose_id>  (5) 
5

$$$$
