
     RDKit          3D

 21 22  0  0  0  0  0  0  0  0999 V2000
   20.5220   11.2400   18.9170 O   0  0  0  0  0  0  0  0  0  0  0  0
   20.9740   10.3910   19.6710 C   0  0  0  0  0  0  0  0  0  0  0  0
   22.2060    9.7890   19.4710 N   0  0  0  0  0  0  0  0  0  0  0  0
   20.3870    9.9030   20.8190 N   0  0  0  0  0  0  0  0  0  0  0  0
   22.2230    8.8160   19.7400 H   0  0  0  0  0  0  0  0  0  0  0  0
   21.0080    9.3990   21.4330 H   0  0  0  0  0  0  0  0  0  0  0  0
   22.9640   10.1120   18.2700 C   0  0  0  0  0  2  0  0  0  0  0  0
   23.3830    8.8450   17.5040 C   0  0  0  0  0  2  0  0  0  0  0  0
   23.8350    9.0990   16.1270 N   0  0  0  0  0  0  0  0  0  0  0  0
   24.5090   10.4120   15.9960 C   0  0  0  0  0  2  0  0  0  0  0  0
   24.7100    8.0150   15.6260 C   0  0  0  0  0  2  0  0  0  0  0  0
   25.4670   10.4510   14.7950 C   0  0  0  0  0  2  0  0  0  0  0  0
   26.2060    8.3580   15.6880 C   0  0  0  0  0  2  0  0  0  0  0  0
   26.5520    9.5200   14.9250 O   0  0  0  0  0  0  0  0  0  0  0  0
   19.1030   10.2000   21.3190 C   0  0  0  0  0  0  0  0  0  0  0  0
   17.9260    9.6350   20.8210 C   0  0  0  0  0  3  0  0  0  0  0  0
   19.0220   11.0990   22.3900 C   0  0  0  0  0  3  0  0  0  0  0  0
   16.6850    9.9690   21.3740 C   0  0  0  0  0  3  0  0  0  0  0  0
   17.7820   11.4290   22.9380 C   0  0  0  0  0  0  0  0  0  0  0  0
   16.6120   10.8690   22.4350 C   0  0  0  0  0  3  0  0  0  0  0  0
   17.7010   12.5390   24.2530 Cl  0  0  0  0  0  0  0  0  0  0  0  0
  1  2  2  0
  2  4  1  0
  3  2  1  0
  3  5  1  0
  4 15  1  0
  4  6  1  0
  7  3  1  0
  8  7  1  0
  9  8  1  0
 10  9  1  0
 11 13  1  0
 11  9  1  0
 12 14  1  0
 12 10  1  0
 14 13  1  0
 15 17  1  0
 16 15  2  0
 16 18  1  0
 17 19  2  0
 18 20  2  0
 19 21  1  0
 20 19  1  0
M  RAD  8   7   3   8   3  10   3  11   3  12   3  13   3  16   2  17   2
M  RAD  2  18   2  20   2
M  END
>  <vina_score>  (1) 
-6.6479999999999997

>  <pose_id>  (1) 
1

$$$$

     RDKit          3D

 21 22  0  0  0  0  0  0  0  0999 V2000
   20.7320   11.3150   19.0530 O   0  0  0  0  0  0  0  0  0  0  0  0
   21.0700   10.3260   19.6870 C   0  0  0  0  0  0  0  0  0  0  0  0
   22.1970    9.5850   19.3740 N   0  0  0  0  0  0  0  0  0  0  0  0
   20.4390    9.7920   20.7900 N   0  0  0  0  0  0  0  0  0  0  0  0
   22.0780    8.5940   19.5270 H   0  0  0  0  0  0  0  0  0  0  0  0
   20.9920    9.1340   21.3190 H   0  0  0  0  0  0  0  0  0  0  0  0
   22.9720    9.9390   18.1930 C   0  0  0  0  0  2  0  0  0  0  0  0
   23.5120    8.6920   17.4710 C   0  0  0  0  0  2  0  0  0  0  0  0
   23.9430    8.9400   16.0860 N   0  0  0  0  0  0  0  0  0  0  0  0
   24.4750   10.3110   15.9070 C   0  0  0  0  0  2  0  0  0  0  0  0
   24.9300    7.9370   15.6290 C   0  0  0  0  0  2  0  0  0  0  0  0
   25.4330   10.4060   14.7090 C   0  0  0  0  0  2  0  0  0  0  0  0
   26.3820    8.4380   15.6820 C   0  0  0  0  0  2  0  0  0  0  0  0
   26.6080    9.6010   14.8770 O   0  0  0  0  0  0  0  0  0  0  0  0
   19.2210   10.2050   21.3670 C   0  0  0  0  0  0  0  0  0  0  0  0
   19.1180   11.2320   22.3090 C   0  0  0  0  0  3  0  0  0  0  0  0
   18.0560    9.5510   20.9460 C   0  0  0  0  0  3  0  0  0  0  0  0
   17.8720   11.5960   22.8310 C   0  0  0  0  0  3  0  0  0  0  0  0
   16.8170    9.9180   21.4710 C   0  0  0  0  0  0  0  0  0  0  0  0
   16.7180   10.9370   22.4130 C   0  0  0  0  0  3  0  0  0  0  0  0
   15.3940    9.1020   20.9450 Cl  0  0  0  0  0  0  0  0  0  0  0  0
  1  2  2  0
  2  4  1  0
  3  5  1  0
  3  2  1  0
  4  6  1  0
  4 15  1  0
  7  3  1  0
  8  7  1  0
  9  8  1  0
 10  9  1  0
 11 13  1  0
 11  9  1  0
 12 14  1  0
 12 10  1  0
 14 13  1  0
 15 16  2  0
 16 18  1  0
 17 15  1  0
 17 19  2  0
 19 20  1  0
 20 18  2  0
 21 19  1  0
M  RAD  8   7   3   8   3  10   3  11   3  12   3  13   3  16   2  17   2
M  RAD  2  18   2  20   2
M  END
>  <vina_score>  (2) 
-6.4589999999999996

>  <pose_id>  (2) 
2

$$$$

     RDKit          3D

 21 22  0  0  0  0  0  0  0  0999 V2000
   19.1200   13.6730   12.3120 O   0  0  0  0  0  0  0  0  0  0  0  0
   19.5770   14.8040   12.2180 C   0  0  0  0  0  0  0  0  0  0  0  0
   18.7900   15.9100   11.9460 N   0  0  0  0  0  0  0  0  0  0  0  0
   20.8930   15.1820   12.3760 N   0  0  0  0  0  0  0  0  0  0  0  0
   19.2510   16.5930   11.3620 H   0  0  0  0  0  0  0  0  0  0  0  0
   21.0380   16.1720   12.5070 H   0  0  0  0  0  0  0  0  0  0  0  0
   17.3720   15.7190   11.6730 C   0  0  0  0  0  2  0  0  0  0  0  0
   16.4920   16.4650   12.6910 C   0  0  0  0  0  2  0  0  0  0  0  0
   15.8110   15.5850   13.6540 N   0  0  0  0  0  0  0  0  0  0  0  0
   15.7100   14.1920   13.1580 C   0  0  0  0  0  2  0  0  0  0  0  0
   16.4620   15.6160   14.9830 C   0  0  0  0  0  2  0  0  0  0  0  0
   15.5620   13.1810   14.3060 C   0  0  0  0  0  2  0  0  0  0  0  0
   17.3860   14.4150   15.2410 C   0  0  0  0  0  2  0  0  0  0  0  0
   16.7070   13.1550   15.1690 O   0  0  0  0  0  0  0  0  0  0  0  0
   22.0090   14.3450   12.5790 C   0  0  0  0  0  0  0  0  0  0  0  0
   22.2570   13.6580   13.7700 C   0  0  0  0  0  3  0  0  0  0  0  0
   22.9000   14.1900   11.5090 C   0  0  0  0  0  3  0  0  0  0  0  0
   23.3820   12.8340   13.8970 C   0  0  0  0  0  3  0  0  0  0  0  0
   24.0190   13.3680   11.6410 C   0  0  0  0  0  0  0  0  0  0  0  0
   24.2660   12.6900   12.8300 C   0  0  0  0  0  3  0  0  0  0  0  0
   25.1060   13.1900   10.3170 Cl  0  0  0  0  0  0  0  0  0  0  0  0
  2  1  2  0
  2  4  1  0
  3  2  1  0
  4  6  1  0
  4 15  1  0
  5  3  1  0
  7  3  1  0
  7  8  1  0
  8  9  1  0
  9 11  1  0
 10  9  1  0
 10 12  1  0
 11 13  1  0
 12 14  1  0
 14 13  1  0
 15 16  2  0
 16 18  1  0
 17 19  2  0
 17 15  1  0
 19 20  1  0
 20 18  2  0
 21 19  1  0
M  RAD  8   7   3   8   3  10   3  11   3  12   3  13   3  16   2  17   2
M  RAD  2  18   2  20   2
M  END
>  <vina_score>  (3) 
-6.181

>  <pose_id>  (3) 
3

$$$$

     RDKit          3D

 21 22  0  0  0  0  0  0  0  0999 V2000
   20.4700   11.1370   18.7940 O   0  0  0  0  0  0  0  0  0  0  0  0
   20.9420   10.3310   19.5840 C   0  0  0  0  0  0  0  0  0  0  0  0
   22.2000    9.7740   19.4240 N   0  0  0  0  0  0  0  0  0  0  0  0
   20.3540    9.8580   20.7370 N   0  0  0  0  0  0  0  0  0  0  0  0
   22.2510    8.8110   19.7250 H   0  0  0  0  0  0  0  0  0  0  0  0
   20.9840    9.4000   21.3780 H   0  0  0  0  0  0  0  0  0  0  0  0
   22.9660   10.0880   18.2250 C   0  0  0  0  0  2  0  0  0  0  0  0
   22.7610    9.0300   17.1260 C   0  0  0  0  0  2  0  0  0  0  0  0
   23.1910    9.4660   15.7870 N   0  0  0  0  0  0  0  0  0  0  0  0
   23.2680    8.3350   14.8330 C   0  0  0  0  0  2  0  0  0  0  0  0
   22.3210   10.5380   15.2530 C   0  0  0  0  0  2  0  0  0  0  0  0
   23.1320    8.8010   13.3750 C   0  0  0  0  0  2  0  0  0  0  0  0
   21.2750   10.0330   14.2470 C   0  0  0  0  0  2  0  0  0  0  0  0
   21.8540    9.3940   13.1030 O   0  0  0  0  0  0  0  0  0  0  0  0
   19.0510   10.1190   21.2060 C   0  0  0  0  0  0  0  0  0  0  0  0
   17.9080    9.4810   20.7160 C   0  0  0  0  0  3  0  0  0  0  0  0
   18.9140   11.0600   22.2340 C   0  0  0  0  0  3  0  0  0  0  0  0
   16.6450    9.7830   21.2380 C   0  0  0  0  0  3  0  0  0  0  0  0
   17.6520   11.3580   22.7500 C   0  0  0  0  0  0  0  0  0  0  0  0
   16.5160   10.7250   22.2560 C   0  0  0  0  0  3  0  0  0  0  0  0
   17.5010   12.5190   24.0120 Cl  0  0  0  0  0  0  0  0  0  0  0  0
  1  2  2  0
  2  4  1  0
  3  2  1  0
  3  5  1  0
  4 15  1  0
  4  6  1  0
  7  3  1  0
  8  7  1  0
  9  8  1  0
 10  9  1  0
 11  9  1  0
 12 10  1  0
 13 11  1  0
 14 12  1  0
 14 13  1  0
 15 17  1  0
 16 15  2  0
 16 18  1  0
 17 19  2  0
 18 20  2  0
 19 21  1  0
 20 19  1  0
M  RAD  8   7   3   8   3  10   3  11   3  12   3  13   3  16   2  17   2
M  RAD  2  18   2  20   2
M  END
>  <vina_score>  (4) 
-6.1699999999999999

>  <pose_id>  (4) 
4

$$$$

     RDKit          3D

 21 22  0  0  0  0  0  0  0  0999 V2000
   19.7390   12.0310   12.7040 O   0  0  0  0  0  0  0  0  0  0  0  0
   19.9090   13.0010   13.4300 C   0  0  0  0  0  0  0  0  0  0  0  0
   21.0070   13.1290   14.2640 N   0  0  0  0  0  0  0  0  0  0  0  0
   19.0930   14.1060   13.5420 N   0  0  0  0  0  0  0  0  0  0  0  0
   20.7900   13.5790   15.1410 H   0  0  0  0  0  0  0  0  0  0  0  0
   19.5160   14.9010   13.9970 H   0  0  0  0  0  0  0  0  0  0  0  0
   21.9610   12.0320   14.3520 C   0  0  0  0  0  2  0  0  0  0  0  0
   23.3980   12.5430   14.5580 C   0  0  0  0  0  2  0  0  0  0  0  0
   24.2770   12.3430   13.3940 N   0  0  0  0  0  0  0  0  0  0  0  0
   23.9840   11.0750   12.6870 C   0  0  0  0  0  2  0  0  0  0  0  0
   24.2170   13.4870   12.4570 C   0  0  0  0  0  2  0  0  0  0  0  0
   24.4350   11.1170   11.2180 C   0  0  0  0  0  2  0  0  0  0  0  0
   23.3170   13.2320   11.2370 C   0  0  0  0  0  2  0  0  0  0  0  0
   23.7330   12.1070   10.4530 O   0  0  0  0  0  0  0  0  0  0  0  0
   17.8440   14.3180   12.9240 C   0  0  0  0  0  0  0  0  0  0  0  0
   16.6400   13.8050   13.4130 C   0  0  0  0  0  3  0  0  0  0  0  0
   17.8250   15.1060   11.7660 C   0  0  0  0  0  3  0  0  0  0  0  0
   15.4340   14.0660   12.7520 C   0  0  0  0  0  3  0  0  0  0  0  0
   16.6200   15.3620   11.1110 C   0  0  0  0  0  0  0  0  0  0  0  0
   15.4240   14.8450   11.5970 C   0  0  0  0  0  3  0  0  0  0  0  0
   16.6140   16.3310    9.6870 Cl  0  0  0  0  0  0  0  0  0  0  0  0
  1  2  2  0
  2  4  1  0
  2  3  1  0
  3  7  1  0
  3  5  1  0
  4  6  1  0
  7  8  1  0
  9  8  1  0
 10  9  1  0
 11  9  1  0
 12 10  1  0
 13 11  1  0
 14 12  1  0
 14 13  1  0
 15 16  2  0
 15  4  1  0
 17 15  1  0
 18 16  1  0
 19 20  1  0
 19 17  2  0
 20 18  2  0
 21 19  1  0
M  RAD  8   7   3   8   3  10   3  11   3  12   3  13   3  16   2  17   2
M  RAD  2  18   2  20   2
M  END
>  <vina_score>  (5) 
-6.1459999999999999

>  <pose_id>  (5) 
5

$$$$
