
     RDKit          3D

 23 25  0  0  0  0  0  0  0  0999 V2000
   22.7460   14.0930   12.3350 C   0  0  0  0  0  0  0  0  0  0  0  0
   23.1180   14.3500   11.0050 C   0  0  0  0  0  0  0  0  0  0  0  0
   23.9690   13.4980   10.3120 C   0  0  0  0  0  3  0  0  0  0  0  0
   24.4610   12.3570   10.9400 C   0  0  0  0  0  3  0  0  0  0  0  0
   24.1020   12.0510   12.2600 C   0  0  0  0  0  0  0  0  0  0  0  0
   24.6020   10.8870   12.8690 C   0  0  0  0  0  3  0  0  0  0  0  0
   24.2570   10.5560   14.1770 C   0  0  0  0  0  3  0  0  0  0  0  0
   23.4030   11.3830   14.8930 C   0  0  0  0  0  3  0  0  0  0  0  0
   22.9000   12.5450   14.3020 C   0  0  0  0  0  3  0  0  0  0  0  0
   23.2340   12.9140   12.9770 C   0  0  0  0  0  0  0  0  0  0  0  0
   21.8180   15.0500   13.0500 C   0  0  0  0  0  2  0  0  0  0  0  0
   20.6730   15.3700   12.2260 N   0  0  0  0  0  0  0  0  0  0  0  0
   19.4320   13.5780   12.9400 O   0  0  0  0  0  0  0  0  0  0  0  0
   19.5270   14.6080   12.2830 C   0  0  0  0  0  0  0  0  0  0  0  0
   20.6040   16.3270   11.9120 H   0  0  0  0  0  0  0  0  0  0  0  0
   18.3610   15.1190   11.5110 C   0  0  0  0  0  0  0  0  0  0  0  0
   18.6000   15.7500   10.2840 C   0  0  0  0  0  3  0  0  0  0  0  0
   17.0490   15.0100   11.9900 C   0  0  0  0  0  3  0  0  0  0  0  0
   17.5350   16.2450    9.5290 C   0  0  0  0  0  3  0  0  0  0  0  0
   15.9860   15.5080   11.2330 C   0  0  0  0  0  3  0  0  0  0  0  0
   16.2290   16.1200   10.0030 C   0  0  0  0  0  3  0  0  0  0  0  0
   22.6240   15.4610   10.3780 O   0  0  0  0  0  0  0  0  0  0  0  0
   21.9570   15.1870    9.7260 H   0  0  0  0  0  0  0  0  0  0  0  0
  1 10  1  0
  1 11  1  0
  2  1  2  0
  3  4  2  0
  3  2  1  0
  4  5  1  0
  5  6  2  0
  5 10  1  0
  6  7  1  0
  7  8  2  0
  9  8  1  0
 10  9  2  0
 12 14  1  0
 12 11  1  0
 14 13  2  0
 15 12  1  0
 16 18  1  0
 16 14  1  0
 17 16  2  0
 19 21  2  0
 19 17  1  0
 20 18  2  0
 21 20  1  0
 22  2  1  0
 23 22  1  0
M  RAD  8   3   2   4   2   6   2   7   2   8   2   9   2  11   3  17   2
M  RAD  4  18   2  19   2  20   2  21   2
M  END
>  <vina_score>  (1) 
-7.444

>  <pose_id>  (1) 
1

$$$$

     RDKit          3D

 23 25  0  0  0  0  0  0  0  0999 V2000
   22.0040   13.5130   13.1840 C   0  0  0  0  0  0  0  0  0  0  0  0
   21.2400   12.8360   14.1480 C   0  0  0  0  0  0  0  0  0  0  0  0
   21.3540   11.4630   14.3320 C   0  0  0  0  0  3  0  0  0  0  0  0
   22.2510   10.7380   13.5530 C   0  0  0  0  0  3  0  0  0  0  0  0
   23.0460   11.3750   12.5900 C   0  0  0  0  0  0  0  0  0  0  0  0
   23.9520   10.6230   11.8240 C   0  0  0  0  0  3  0  0  0  0  0  0
   24.7590   11.2300   10.8650 C   0  0  0  0  0  3  0  0  0  0  0  0
   24.6730   12.6000   10.6630 C   0  0  0  0  0  3  0  0  0  0  0  0
   23.7750   13.3610   11.4160 C   0  0  0  0  0  3  0  0  0  0  0  0
   22.9370   12.7760   12.3940 C   0  0  0  0  0  0  0  0  0  0  0  0
   21.8440   15.0080   13.0180 C   0  0  0  0  0  2  0  0  0  0  0  0
   20.5130   15.3360   12.5580 N   0  0  0  0  0  0  0  0  0  0  0  0
   21.0880   15.3420   10.3370 O   0  0  0  0  0  0  0  0  0  0  0  0
   20.2340   15.4290   11.2120 C   0  0  0  0  0  0  0  0  0  0  0  0
   19.7580   15.1320   13.1970 H   0  0  0  0  0  0  0  0  0  0  0  0
   18.8020   15.6170   10.8510 C   0  0  0  0  0  0  0  0  0  0  0  0
   17.8250   15.2310   11.7770 C   0  0  0  0  0  3  0  0  0  0  0  0
   18.4120   16.1380    9.6110 C   0  0  0  0  0  3  0  0  0  0  0  0
   16.4710   15.3890   11.4770 C   0  0  0  0  0  3  0  0  0  0  0  0
   17.0560   16.2930    9.3130 C   0  0  0  0  0  3  0  0  0  0  0  0
   16.0880   15.9230   10.2480 C   0  0  0  0  0  3  0  0  0  0  0  0
   20.3700   13.5480   14.9290 O   0  0  0  0  0  0  0  0  0  0  0  0
   19.6580   13.9010   14.3700 H   0  0  0  0  0  0  0  0  0  0  0  0
  1  2  2  0
  2  3  1  0
  2 22  1  0
  4  3  2  0
  5  4  1  0
  6  5  2  0
  7  6  1  0
  8  7  2  0
  8  9  1  0
  9 10  2  0
 10  5  1  0
 10  1  1  0
 11  1  1  0
 12 11  1  0
 12 15  1  0
 13 14  2  0
 14 12  1  0
 16 14  1  0
 16 17  2  0
 18 16  1  0
 19 17  1  0
 20 18  2  0
 20 21  1  0
 21 19  2  0
 23 22  1  0
M  RAD  8   3   2   4   2   6   2   7   2   8   2   9   2  11   3  17   2
M  RAD  4  18   2  19   2  20   2  21   2
M  END
>  <vina_score>  (2) 
-7.343

>  <pose_id>  (2) 
2

$$$$

     RDKit          3D

 23 25  0  0  0  0  0  0  0  0999 V2000
   17.3710   14.8280   12.3500 C   0  0  0  0  0  0  0  0  0  0  0  0
   16.0230   15.0670   12.0380 C   0  0  0  0  0  0  0  0  0  0  0  0
   15.6550   15.7230   10.8690 C   0  0  0  0  0  3  0  0  0  0  0  0
   16.6380   16.1460    9.9800 C   0  0  0  0  0  3  0  0  0  0  0  0
   17.9940   15.9130   10.2420 C   0  0  0  0  0  0  0  0  0  0  0  0
   18.9680   16.3390    9.3220 C   0  0  0  0  0  3  0  0  0  0  0  0
   20.3230   16.1140    9.5540 C   0  0  0  0  0  3  0  0  0  0  0  0
   20.7220   15.4560   10.7090 C   0  0  0  0  0  3  0  0  0  0  0  0
   19.7660   15.0280   11.6330 C   0  0  0  0  0  3  0  0  0  0  0  0
   18.3820   15.2440   11.4320 C   0  0  0  0  0  0  0  0  0  0  0  0
   17.7250   14.1110   13.6340 C   0  0  0  0  0  2  0  0  0  0  0  0
   17.6720   12.6760   13.4560 N   0  0  0  0  0  0  0  0  0  0  0  0
   19.9180   12.3690   13.8070 O   0  0  0  0  0  0  0  0  0  0  0  0
   18.8020   11.9040   13.6110 C   0  0  0  0  0  0  0  0  0  0  0  0
   16.7680   12.2450   13.5820 H   0  0  0  0  0  0  0  0  0  0  0  0
   18.5990   10.4290   13.5580 C   0  0  0  0  0  0  0  0  0  0  0  0
   19.7280    9.6010   13.5510 C   0  0  0  0  0  3  0  0  0  0  0  0
   17.3220    9.8580   13.4890 C   0  0  0  0  0  3  0  0  0  0  0  0
   19.5820    8.2140   13.5000 C   0  0  0  0  0  3  0  0  0  0  0  0
   17.1790    8.4690   13.4370 C   0  0  0  0  0  3  0  0  0  0  0  0
   18.3080    7.6500   13.4470 C   0  0  0  0  0  3  0  0  0  0  0  0
   15.0530   14.6370   12.9010 O   0  0  0  0  0  0  0  0  0  0  0  0
   14.1900   14.9640   12.5960 H   0  0  0  0  0  0  0  0  0  0  0  0
  1 11  1  0
  2  1  2  0
  2 22  1  0
  3  2  1  0
  4  5  1  0
  4  3  2  0
  5 10  1  0
  6  7  1  0
  6  5  2  0
  7  8  2  0
  8  9  1  0
 10  9  2  0
 10  1  1  0
 12 15  1  0
 12 14  1  0
 12 11  1  0
 14 13  2  0
 16 14  1  0
 17 16  2  0
 18 16  1  0
 19 17  1  0
 20 21  1  0
 20 18  2  0
 21 19  2  0
 23 22  1  0
M  RAD  8   3   2   4   2   6   2   7   2   8   2   9   2  11   3  17   2
M  RAD  4  18   2  19   2  20   2  21   2
M  END
>  <vina_score>  (3) 
-7.327

>  <pose_id>  (3) 
3

$$$$

     RDKit          3D

 23 25  0  0  0  0  0  0  0  0999 V2000
   18.8290   15.3290   11.9520 C   0  0  0  0  0  0  0  0  0  0  0  0
   19.2290   16.0970   10.8470 C   0  0  0  0  0  0  0  0  0  0  0  0
   18.3240   16.4750    9.8610 C   0  0  0  0  0  3  0  0  0  0  0  0
   16.9900   16.0940    9.9700 C   0  0  0  0  0  3  0  0  0  0  0  0
   16.5440   15.3420   11.0650 C   0  0  0  0  0  0  0  0  0  0  0  0
   15.1890   14.9790   11.1590 C   0  0  0  0  0  3  0  0  0  0  0  0
   14.7170   14.2380   12.2400 C   0  0  0  0  0  3  0  0  0  0  0  0
   15.5940   13.8530   13.2440 C   0  0  0  0  0  3  0  0  0  0  0  0
   16.9440   14.2040   13.1630 C   0  0  0  0  0  3  0  0  0  0  0  0
   17.4580   14.9520   12.0770 C   0  0  0  0  0  0  0  0  0  0  0  0
   19.8490   14.9410   13.0000 C   0  0  0  0  0  2  0  0  0  0  0  0
   20.7530   13.9340   12.4910 N   0  0  0  0  0  0  0  0  0  0  0  0
   22.6180   15.2570   12.6730 O   0  0  0  0  0  0  0  0  0  0  0  0
   22.1080   14.1730   12.4160 C   0  0  0  0  0  0  0  0  0  0  0  0
   20.4320   12.9780   12.5470 H   0  0  0  0  0  0  0  0  0  0  0  0
   22.9570   13.0150   12.0260 C   0  0  0  0  0  0  0  0  0  0  0  0
   22.8290   11.8210   12.7470 C   0  0  0  0  0  3  0  0  0  0  0  0
   23.8910   13.0970   10.9840 C   0  0  0  0  0  3  0  0  0  0  0  0
   23.6080   10.7110   12.4140 C   0  0  0  0  0  3  0  0  0  0  0  0
   24.6700   11.9850   10.6550 C   0  0  0  0  0  3  0  0  0  0  0  0
   24.5240   10.7940   11.3660 C   0  0  0  0  0  3  0  0  0  0  0  0
   20.5360   16.4890   10.7440 O   0  0  0  0  0  0  0  0  0  0  0  0
   21.1010   15.7000   10.7080 H   0  0  0  0  0  0  0  0  0  0  0  0
  1 10  1  0
  1 11  1  0
  2  1  2  0
  3  4  2  0
  3  2  1  0
  4  5  1  0
  5  6  2  0
  5 10  1  0
  6  7  1  0
  7  8  2  0
  9  8  1  0
 10  9  2  0
 12 15  1  0
 12 11  1  0
 14 12  1  0
 14 13  2  0
 16 14  1  0
 16 17  2  0
 18 16  1  0
 19 17  1  0
 20 18  2  0
 20 21  1  0
 21 19  2  0
 22  2  1  0
 23 22  1  0
M  RAD  8   3   2   4   2   6   2   7   2   8   2   9   2  11   3  17   2
M  RAD  4  18   2  19   2  20   2  21   2
M  END
>  <vina_score>  (4) 
-7.2130000000000001

>  <pose_id>  (4) 
4

$$$$

     RDKit          3D

 23 25  0  0  0  0  0  0  0  0999 V2000
   18.2860   11.1290   19.4430 C   0  0  0  0  0  0  0  0  0  0  0  0
   18.9280   11.9900   20.3480 C   0  0  0  0  0  0  0  0  0  0  0  0
   18.5450   12.0560   21.6830 C   0  0  0  0  0  3  0  0  0  0  0  0
   17.5080   11.2490   22.1410 C   0  0  0  0  0  3  0  0  0  0  0  0
   16.8510   10.3620   21.2770 C   0  0  0  0  0  0  0  0  0  0  0  0
   15.8150    9.5480   21.7660 C   0  0  0  0  0  3  0  0  0  0  0  0
   15.1490    8.6540   20.9310 C   0  0  0  0  0  3  0  0  0  0  0  0
   15.5140    8.5590   19.5950 C   0  0  0  0  0  3  0  0  0  0  0  0
   16.5400    9.3640   19.0940 C   0  0  0  0  0  3  0  0  0  0  0  0
   17.2340   10.2860   19.9130 C   0  0  0  0  0  0  0  0  0  0  0  0
   18.7370   11.0920   18.0000 C   0  0  0  0  0  2  0  0  0  0  0  0
   18.1040   12.1440   17.2350 N   0  0  0  0  0  0  0  0  0  0  0  0
   17.0410   10.7050   15.7980 O   0  0  0  0  0  0  0  0  0  0  0  0
   17.2460   11.8440   16.1990 C   0  0  0  0  0  0  0  0  0  0  0  0
   18.0150   13.0380   17.6960 H   0  0  0  0  0  0  0  0  0  0  0  0
   16.5330   12.9990   15.5860 C   0  0  0  0  0  0  0  0  0  0  0  0
   16.4210   14.1820   16.3250 C   0  0  0  0  0  3  0  0  0  0  0  0
   15.9540   12.9210   14.3120 C   0  0  0  0  0  3  0  0  0  0  0  0
   15.7580   15.2870   15.7870 C   0  0  0  0  0  3  0  0  0  0  0  0
   15.2910   14.0280   13.7770 C   0  0  0  0  0  3  0  0  0  0  0  0
   15.1980   15.2100   14.5130 C   0  0  0  0  0  3  0  0  0  0  0  0
   19.9600   12.7730   19.9070 O   0  0  0  0  0  0  0  0  0  0  0  0
   19.5950   13.5570   19.4620 H   0  0  0  0  0  0  0  0  0  0  0  0
  1 10  1  0
  1  2  2  0
  2  3  1  0
  3  4  2  0
  5  6  2  0
  5  4  1  0
  7  6  1  0
  8  7  2  0
  9  8  1  0
  9 10  2  0
 10  5  1  0
 11  1  1  0
 12 15  1  0
 12 11  1  0
 13 14  2  0
 14 12  1  0
 16 14  1  0
 16 17  2  0
 18 16  1  0
 19 17  1  0
 20 18  2  0
 20 21  1  0
 21 19  2  0
 22  2  1  0
 23 22  1  0
M  RAD  8   3   2   4   2   6   2   7   2   8   2   9   2  11   3  17   2
M  RAD  4  18   2  19   2  20   2  21   2
M  END
>  <vina_score>  (5) 
-7.1669999999999998

>  <pose_id>  (5) 
5

$$$$
