
     RDKit          3D

 24 26  0  0  0  0  0  0  0  0999 V2000
   20.5440   15.4060    9.6750 O   0  0  0  0  0  0  0  0  0  0  0  0
   20.7530   15.5570   10.8760 C   0  0  0  0  0  0  0  0  0  0  0  0
   19.8050   15.5700   11.8740 N   0  0  0  0  0  0  0  0  0  0  0  0
   20.1120   15.6390   12.8450 H   0  0  0  0  0  0  0  0  0  0  0  0
   22.1620   15.7700   11.4000 C   0  0  0  0  0  2  0  0  0  0  0  0
   22.8970   14.4750   11.6280 C   0  0  0  0  0  0  0  0  0  0  0  0
   22.8890   13.8560   12.8840 C   0  0  0  0  0  3  0  0  0  0  0  0
   23.6370   13.8900   10.5970 C   0  0  0  0  0  0  0  0  0  0  0  0
   23.5940   12.6670   13.0870 C   0  0  0  0  0  3  0  0  0  0  0  0
   24.3420   12.7070   10.7920 C   0  0  0  0  0  3  0  0  0  0  0  0
   24.3170   12.0900   12.0420 C   0  0  0  0  0  3  0  0  0  0  0  0
   23.6830   14.4840    9.3960 F   0  0  0  0  0  0  0  0  0  0  0  0
   18.4090   15.4030   11.7710 C   0  0  0  0  0  0  0  0  0  0  0  0
   17.6170   16.0080   10.7960 C   0  0  0  0  0  3  0  0  0  0  0  0
   17.8270   14.5460   12.7410 C   0  0  0  0  0  0  0  0  0  0  0  0
   16.2450   15.7650   10.7790 C   0  0  0  0  0  0  0  0  0  0  0  0
   16.4440   14.3210   12.7040 C   0  0  0  0  0  3  0  0  0  0  0  0
   15.6550   14.9280   11.7250 C   0  0  0  0  0  3  0  0  0  0  0  0
   15.2580   16.5100    9.5790 Cl  0  0  0  0  0  0  0  0  0  0  0  0
   18.6690   13.9760   13.7220 N   0  0  0  0  0  0  0  0  0  0  0  0
   18.9380   12.5300   13.5890 C   0  0  0  0  0  2  0  0  0  0  0  0
   18.2090   14.2580   15.0970 C   0  0  0  0  0  2  0  0  0  0  0  0
   18.4750   11.9140   14.9060 C   0  0  0  0  0  2  0  0  0  0  0  0
   18.6750   13.0470   15.8960 C   0  0  0  0  0  2  0  0  0  0  0  0
  1  2  2  0
  2  5  1  0
  2  3  1  0
  3  4  1  0
  5  6  1  0
  6  7  2  0
  7  9  1  0
  8 10  2  0
  8  6  1  0
 10 11  1  0
 11  9  2  0
 12  8  1  0
 13  3  1  0
 13 15  2  0
 14 13  1  0
 15 20  1  0
 16 14  2  0
 16 18  1  0
 17 15  1  0
 18 17  2  0
 19 16  1  0
 20 22  1  0
 21 20  1  0
 21 23  1  0
 22 24  1  0
 23 24  1  0
M  RAD  8   5   3   7   2   9   2  10   2  11   2  14   2  17   2  18   2
M  RAD  4  21   3  22   3  23   3  24   3
M  END
>  <vina_score>  (1) 
-7.2750000000000004

>  <pose_id>  (1) 
1

$$$$

     RDKit          3D

 24 26  0  0  0  0  0  0  0  0999 V2000
   21.3290   12.0220   20.5460 O   0  0  0  0  0  0  0  0  0  0  0  0
   21.0770   10.8200   20.5090 C   0  0  0  0  0  0  0  0  0  0  0  0
   21.2910    9.9730   19.4450 N   0  0  0  0  0  0  0  0  0  0  0  0
   21.0990    8.9780   19.5600 H   0  0  0  0  0  0  0  0  0  0  0  0
   20.4550   10.1190   21.7040 C   0  0  0  0  0  2  0  0  0  0  0  0
   18.9870   10.4190   21.8520 C   0  0  0  0  0  0  0  0  0  0  0  0
   18.5320   11.3200   22.8220 C   0  0  0  0  0  3  0  0  0  0  0  0
   18.0460    9.7670   21.0500 C   0  0  0  0  0  0  0  0  0  0  0  0
   17.1650   11.5720   22.9650 C   0  0  0  0  0  3  0  0  0  0  0  0
   16.6840   10.0120   21.1860 C   0  0  0  0  0  3  0  0  0  0  0  0
   16.2410   10.9210   22.1450 C   0  0  0  0  0  3  0  0  0  0  0  0
   18.4590    8.8770   20.1360 F   0  0  0  0  0  0  0  0  0  0  0  0
   21.8480   10.2620   18.1820 C   0  0  0  0  0  0  0  0  0  0  0  0
   23.2170   10.3120   17.9220 C   0  0  0  0  0  3  0  0  0  0  0  0
   20.9100   10.4990   17.1450 C   0  0  0  0  0  0  0  0  0  0  0  0
   23.6600   10.5960   16.6320 C   0  0  0  0  0  0  0  0  0  0  0  0
   21.3820   10.7860   15.8570 C   0  0  0  0  0  3  0  0  0  0  0  0
   22.7530   10.8330   15.6010 C   0  0  0  0  0  3  0  0  0  0  0  0
   25.3500   10.6610   16.3010 Cl  0  0  0  0  0  0  0  0  0  0  0  0
   19.5340   10.4600   17.4650 N   0  0  0  0  0  0  0  0  0  0  0  0
   18.6670    9.7210   16.5260 C   0  0  0  0  0  2  0  0  0  0  0  0
   18.9670   11.8050   17.6910 C   0  0  0  0  0  2  0  0  0  0  0  0
   17.6210   10.7330   16.0670 C   0  0  0  0  0  2  0  0  0  0  0  0
   17.5120   11.6680   17.2570 C   0  0  0  0  0  2  0  0  0  0  0  0
  2  1  2  0
  2  5  1  0
  3  4  1  0
  3  2  1  0
  5  6  1  0
  6  7  2  0
  7  9  1  0
  8 10  2  0
  8  6  1  0
 10 11  1  0
 11  9  2  0
 12  8  1  0
 13  3  1  0
 14 13  1  0
 15 20  1  0
 15 13  2  0
 16 14  2  0
 17 15  1  0
 18 17  2  0
 18 16  1  0
 19 16  1  0
 20 22  1  0
 21 20  1  0
 23 21  1  0
 23 24  1  0
 24 22  1  0
M  RAD  8   5   3   7   2   9   2  10   2  11   2  14   2  17   2  18   2
M  RAD  4  21   3  22   3  23   3  24   3
M  END
>  <vina_score>  (2) 
-6.9779999999999998

>  <pose_id>  (2) 
2

$$$$

     RDKit          3D

 24 26  0  0  0  0  0  0  0  0999 V2000
   18.4380   13.1490   16.8280 O   0  0  0  0  0  0  0  0  0  0  0  0
   17.6280   12.4300   17.4060 C   0  0  0  0  0  0  0  0  0  0  0  0
   17.9090   11.5170   18.3990 N   0  0  0  0  0  0  0  0  0  0  0  0
   17.1370   11.0240   18.8480 H   0  0  0  0  0  0  0  0  0  0  0  0
   16.1530   12.4740   17.0490 C   0  0  0  0  0  2  0  0  0  0  0  0
   15.8960   13.1650   15.7350 C   0  0  0  0  0  0  0  0  0  0  0  0
   15.8560   12.4390   14.5380 C   0  0  0  0  0  3  0  0  0  0  0  0
   15.7360   14.5520   15.6840 C   0  0  0  0  0  0  0  0  0  0  0  0
   15.6400   13.0960   13.3240 C   0  0  0  0  0  3  0  0  0  0  0  0
   15.5210   15.2120   14.4790 C   0  0  0  0  0  3  0  0  0  0  0  0
   15.4690   14.4800   13.2940 C   0  0  0  0  0  3  0  0  0  0  0  0
   15.8020   15.2690   16.8150 F   0  0  0  0  0  0  0  0  0  0  0  0
   19.1520   11.2050   18.9870 C   0  0  0  0  0  0  0  0  0  0  0  0
   20.2990   10.8720   18.2680 C   0  0  0  0  0  3  0  0  0  0  0  0
   19.1820   11.2580   20.4040 C   0  0  0  0  0  0  0  0  0  0  0  0
   21.4800   10.5910   18.9510 C   0  0  0  0  0  0  0  0  0  0  0  0
   20.3820   10.9670   21.0680 C   0  0  0  0  0  3  0  0  0  0  0  0
   21.5280   10.6350   20.3430 C   0  0  0  0  0  3  0  0  0  0  0  0
   22.9010   10.1760   18.0700 Cl  0  0  0  0  0  0  0  0  0  0  0  0
   17.9880   11.5770   21.0890 N   0  0  0  0  0  0  0  0  0  0  0  0
   18.1440   12.2480   22.3940 C   0  0  0  0  0  2  0  0  0  0  0  0
   17.0970   10.4100   21.2480 C   0  0  0  0  0  2  0  0  0  0  0  0
   17.4270   11.3480   23.3960 C   0  0  0  0  0  2  0  0  0  0  0  0
   16.3530   10.6910   22.5490 C   0  0  0  0  0  2  0  0  0  0  0  0
  1  2  2  0
  2  3  1  0
  3  4  1  0
  3 13  1  0
  5  2  1  0
  6  5  1  0
  7  6  2  0
  8  6  1  0
  8 12  1  0
  9  7  1  0
 10  8  2  0
 11  9  2  0
 11 10  1  0
 13 15  2  0
 14 16  2  0
 14 13  1  0
 15 17  1  0
 15 20  1  0
 16 18  1  0
 18 17  2  0
 19 16  1  0
 20 22  1  0
 20 21  1  0
 21 23  1  0
 22 24  1  0
 24 23  1  0
M  RAD  8   5   3   7   2   9   2  10   2  11   2  14   2  17   2  18   2
M  RAD  4  21   3  22   3  23   3  24   3
M  END
>  <vina_score>  (3) 
-6.8890000000000002

>  <pose_id>  (3) 
3

$$$$

     RDKit          3D

 24 26  0  0  0  0  0  0  0  0999 V2000
   19.2820   11.8310   12.7060 O   0  0  0  0  0  0  0  0  0  0  0  0
   19.6830   12.8000   13.3440 C   0  0  0  0  0  0  0  0  0  0  0  0
   20.6840   12.7980   14.2900 N   0  0  0  0  0  0  0  0  0  0  0  0
   20.9710   13.6840   14.7060 H   0  0  0  0  0  0  0  0  0  0  0  0
   19.0640   14.1720   13.1460 C   0  0  0  0  0  2  0  0  0  0  0  0
   19.5030   14.8260   11.8620 C   0  0  0  0  0  0  0  0  0  0  0  0
   20.8620   14.9710   11.5580 C   0  0  0  0  0  3  0  0  0  0  0  0
   18.5590   15.3400   10.9700 C   0  0  0  0  0  0  0  0  0  0  0  0
   21.2570   15.6000   10.3750 C   0  0  0  0  0  3  0  0  0  0  0  0
   18.9430   15.9680    9.7900 C   0  0  0  0  0  3  0  0  0  0  0  0
   20.2980   16.0950    9.4890 C   0  0  0  0  0  3  0  0  0  0  0  0
   17.2530   15.2390   11.2570 F   0  0  0  0  0  0  0  0  0  0  0  0
   21.4800   11.7220   14.7330 C   0  0  0  0  0  0  0  0  0  0  0  0
   21.1690   10.9150   15.8270 C   0  0  0  0  0  3  0  0  0  0  0  0
   22.6540   11.4830   13.9730 C   0  0  0  0  0  0  0  0  0  0  0  0
   22.0230    9.8690   16.1720 C   0  0  0  0  0  0  0  0  0  0  0  0
   23.4980   10.4270   14.3440 C   0  0  0  0  0  3  0  0  0  0  0  0
   23.1820    9.6220   15.4400 C   0  0  0  0  0  3  0  0  0  0  0  0
   21.6480    8.8690   17.5240 Cl  0  0  0  0  0  0  0  0  0  0  0  0
   22.9370   12.3430   12.8880 N   0  0  0  0  0  0  0  0  0  0  0  0
   23.0300   11.7060   11.5600 C   0  0  0  0  0  2  0  0  0  0  0  0
   24.1410   13.1660   13.1160 C   0  0  0  0  0  2  0  0  0  0  0  0
   24.4230   12.0570   11.0450 C   0  0  0  0  0  2  0  0  0  0  0  0
   24.7050   13.3880   11.7170 C   0  0  0  0  0  2  0  0  0  0  0  0
  1  2  2  0
  2  3  1  0
  3  4  1  0
  3 13  1  0
  5  2  1  0
  6  5  1  0
  7  6  2  0
  8 12  1  0
  8  6  1  0
  9  7  1  0
 10  8  2  0
 11 10  1  0
 11  9  2  0
 13 14  1  0
 14 16  2  0
 15 17  1  0
 15 13  2  0
 16 19  1  0
 17 18  2  0
 18 16  1  0
 20 22  1  0
 20 15  1  0
 21 20  1  0
 23 21  1  0
 23 24  1  0
 24 22  1  0
M  RAD  8   5   3   7   2   9   2  10   2  11   2  14   2  17   2  18   2
M  RAD  4  21   3  22   3  23   3  24   3
M  END
>  <vina_score>  (4) 
-6.7910000000000004

>  <pose_id>  (4) 
4

$$$$

     RDKit          3D

 24 26  0  0  0  0  0  0  0  0999 V2000
   19.1270   12.6590   18.3760 O   0  0  0  0  0  0  0  0  0  0  0  0
   18.3450   11.7150   18.3000 C   0  0  0  0  0  0  0  0  0  0  0  0
   17.2780   11.6060   17.4360 N   0  0  0  0  0  0  0  0  0  0  0  0
   16.7390   10.7400   17.4250 H   0  0  0  0  0  0  0  0  0  0  0  0
   18.4850   10.5130   19.2160 C   0  0  0  0  0  2  0  0  0  0  0  0
   17.9660   10.7790   20.6050 C   0  0  0  0  0  0  0  0  0  0  0  0
   16.6130   10.5960   20.9130 C   0  0  0  0  0  3  0  0  0  0  0  0
   18.8220   11.2560   21.6010 C   0  0  0  0  0  0  0  0  0  0  0  0
   16.1400   10.8690   22.1990 C   0  0  0  0  0  3  0  0  0  0  0  0
   18.3590   11.5300   22.8830 C   0  0  0  0  0  3  0  0  0  0  0  0
   17.0130   11.3330   23.1850 C   0  0  0  0  0  3  0  0  0  0  0  0
   20.1150   11.4680   21.3180 F   0  0  0  0  0  0  0  0  0  0  0  0
   16.8430   12.5140   16.4490 C   0  0  0  0  0  0  0  0  0  0  0  0
   16.0560   13.6350   16.7080 C   0  0  0  0  0  3  0  0  0  0  0  0
   17.2710   12.2240   15.1280 C   0  0  0  0  0  0  0  0  0  0  0  0
   15.6910   14.4740   15.6570 C   0  0  0  0  0  0  0  0  0  0  0  0
   16.8870   13.0820   14.0880 C   0  0  0  0  0  3  0  0  0  0  0  0
   16.1000   14.2050   14.3520 C   0  0  0  0  0  3  0  0  0  0  0  0
   14.7170   15.8610   15.9660 Cl  0  0  0  0  0  0  0  0  0  0  0  0
   18.0470   11.0630   14.9140 N   0  0  0  0  0  0  0  0  0  0  0  0
   19.4400   11.2830   14.4750 C   0  0  0  0  0  2  0  0  0  0  0  0
   17.3950   10.1070   13.9980 C   0  0  0  0  0  2  0  0  0  0  0  0
   19.5660   10.5300   13.1540 C   0  0  0  0  0  2  0  0  0  0  0  0
   18.5610    9.4030   13.3110 C   0  0  0  0  0  2  0  0  0  0  0  0
  2  1  2  0
  2  5  1  0
  3  2  1  0
  4  3  1  0
  5  6  1  0
  6  7  2  0
  6  8  1  0
  7  9  1  0
  8 10  2  0
  9 11  2  0
 10 11  1  0
 12  8  1  0
 13 14  1  0
 13  3  1  0
 15 13  2  0
 16 19  1  0
 16 14  2  0
 17 18  2  0
 17 15  1  0
 18 16  1  0
 20 15  1  0
 21 20  1  0
 22 20  1  0
 23 24  1  0
 23 21  1  0
 24 22  1  0
M  RAD  8   5   3   7   2   9   2  10   2  11   2  14   2  17   2  18   2
M  RAD  4  21   3  22   3  23   3  24   3
M  END
>  <vina_score>  (5) 
-6.7679999999999998

>  <pose_id>  (5) 
5

$$$$
