
     RDKit          3D

 20 21  0  0  1  0  0  0  0  0999 V2000
   18.5020   14.9980   12.1480 C   0  0  0  0  0  0  0  0  0  0  0  0
   17.8280   14.9710   11.1190 O   0  0  0  0  0  0  0  0  0  0  0  0
   19.8010   15.4780   12.1380 N   0  0  0  0  0  0  0  0  0  0  0  0
   20.4000   15.2740   12.9250 H   0  0  0  0  0  0  0  0  0  0  0  0
   18.0230   14.4280   13.5320 C   0  0  1  0  0  0  0  0  0  0  0  0
   16.6850   14.9480   13.9590 N   0  0  0  0  0  0  0  0  0  0  0  0
   15.5760   14.1830   13.3950 C   0  0  0  0  0  2  0  0  0  0  0  0
   15.5580   12.7720   13.9910 C   0  0  0  0  0  2  0  0  0  0  0  0
   17.9910   12.8770   13.3670 C   0  0  0  0  0  2  0  0  0  0  0  0
   16.9550   12.2190   14.2700 C   0  0  0  0  0  2  0  0  0  0  0  0
   16.4780   16.3860   13.8110 C   0  0  0  0  0  1  0  0  0  0  0  0
   19.0180   14.8040   14.6520 C   0  0  0  0  0  1  0  0  0  0  0  0
   20.4540   15.8730   10.9110 C   0  0  0  0  0  2  0  0  0  0  0  0
   21.7460   15.1150   10.7320 C   0  0  0  0  0  0  0  0  0  0  0  0
   22.1810   14.2010   11.7040 C   0  0  0  0  0  3  0  0  0  0  0  0
   22.5080   15.2880    9.5640 C   0  0  0  0  0  3  0  0  0  0  0  0
   23.3650   13.4840   11.5170 C   0  0  0  0  0  3  0  0  0  0  0  0
   23.6890   14.5690    9.3790 C   0  0  0  0  0  3  0  0  0  0  0  0
   24.1070   13.6760   10.3560 C   0  0  0  0  0  0  0  0  0  0  0  0
   25.2400   12.9840   10.1780 F   0  0  0  0  0  0  0  0  0  0  0  0
  1  5  1  0
  2  1  2  0
  3  1  1  0
  3  4  1  0
  5  6  1  0
  5 12  1  1
  7  6  1  0
  7  8  1  0
  8 10  1  0
  9  5  1  0
  9 10  1  0
 11  6  1  0
 13  3  1  0
 14 13  1  0
 14 15  1  0
 16 14  2  0
 17 15  2  0
 18 16  1  0
 18 19  2  0
 19 17  1  0
 20 19  1  0
M  RAD  8   7   3   8   3   9   3  10   3  11   2  12   2  13   3  15   2
M  RAD  3  16   2  17   2  18   2
M  END
>  <vina_score>  (1) 
-6.2640000000000002

>  <pose_id>  (1) 
1

$$$$

     RDKit          3D

 20 21  0  0  1  0  0  0  0  0999 V2000
   21.8550   10.0140   19.1930 C   0  0  0  0  0  0  0  0  0  0  0  0
   22.6500   10.9050   19.4860 O   0  0  0  0  0  0  0  0  0  0  0  0
   20.7770    9.7210   20.0110 N   0  0  0  0  0  0  0  0  0  0  0  0
   20.2860    8.8490   19.8760 H   0  0  0  0  0  0  0  0  0  0  0  0
   22.0070    9.0680   17.9470 C   0  0  1  0  0  0  0  0  0  0  0  0
   21.7860    9.7660   16.6400 N   0  0  0  0  0  0  0  0  0  0  0  0
   22.9910   10.4230   16.1400 C   0  0  0  0  0  2  0  0  0  0  0  0
   24.0350    9.3730   15.7500 C   0  0  0  0  0  2  0  0  0  0  0  0
   23.4520    8.4850   18.0280 C   0  0  0  0  0  2  0  0  0  0  0  0
   24.0170    8.1420   16.6550 C   0  0  0  0  0  2  0  0  0  0  0  0
   20.6230   10.6470   16.5720 C   0  0  0  0  0  1  0  0  0  0  0  0
   20.9830    7.9140   18.0070 C   0  0  0  0  0  1  0  0  0  0  0  0
   20.5930   10.3770   21.2860 C   0  0  0  0  0  2  0  0  0  0  0  0
   19.1250   10.5110   21.6050 C   0  0  0  0  0  0  0  0  0  0  0  0
   18.6920   11.3350   22.6550 C   0  0  0  0  0  3  0  0  0  0  0  0
   18.1700    9.8390   20.8230 C   0  0  0  0  0  3  0  0  0  0  0  0
   17.3290   11.4740   22.9260 C   0  0  0  0  0  3  0  0  0  0  0  0
   16.8080    9.9800   21.0950 C   0  0  0  0  0  3  0  0  0  0  0  0
   16.4010   10.7950   22.1430 C   0  0  0  0  0  0  0  0  0  0  0  0
   15.0940   10.9320   22.4040 F   0  0  0  0  0  0  0  0  0  0  0  0
  1  2  2  0
  1  3  1  0
  3 13  1  0
  4  3  1  0
  5 12  1  1
  5  9  1  0
  5  1  1  0
  6  5  1  0
  7  6  1  0
  8  7  1  0
  8 10  1  0
 10  9  1  0
 11  6  1  0
 13 14  1  0
 14 15  1  0
 15 17  2  0
 16 18  1  0
 16 14  2  0
 18 19  2  0
 19 20  1  0
 19 17  1  0
M  RAD  8   7   3   8   3   9   3  10   3  11   2  12   2  13   3  15   2
M  RAD  3  16   2  17   2  18   2
M  END
>  <vina_score>  (2) 
-6.133

>  <pose_id>  (2) 
2

$$$$

     RDKit          3D

 20 21  0  0  1  0  0  0  0  0999 V2000
   18.9870   12.9270   13.4870 C   0  0  0  0  0  0  0  0  0  0  0  0
   18.3910   11.9330   13.0740 O   0  0  0  0  0  0  0  0  0  0  0  0
   20.3710   12.9740   13.5020 N   0  0  0  0  0  0  0  0  0  0  0  0
   20.8270   13.6870   14.0530 H   0  0  0  0  0  0  0  0  0  0  0  0
   18.2800   14.1840   14.1110 C   0  0  1  0  0  0  0  0  0  0  0  0
   17.4950   14.9810   13.1160 N   0  0  0  0  0  0  0  0  0  0  0  0
   16.1420   14.4650   12.9220 C   0  0  0  0  0  2  0  0  0  0  0  0
   15.3160   14.6720   14.1950 C   0  0  0  0  0  2  0  0  0  0  0  0
   17.3540   13.6370   15.2410 C   0  0  0  0  0  2  0  0  0  0  0  0
   16.1380   14.5240   15.4750 C   0  0  0  0  0  2  0  0  0  0  0  0
   18.1570   15.2500   11.8420 C   0  0  0  0  0  1  0  0  0  0  0  0
   19.3200   15.1490   14.7220 C   0  0  0  0  0  1  0  0  0  0  0  0
   21.1730   11.8310   13.1300 C   0  0  0  0  0  2  0  0  0  0  0  0
   22.3480   12.2620   12.2890 C   0  0  0  0  0  0  0  0  0  0  0  0
   23.3490   11.3450   11.9320 C   0  0  0  0  0  3  0  0  0  0  0  0
   22.4310   13.5830   11.8170 C   0  0  0  0  0  3  0  0  0  0  0  0
   24.4200   11.7460   11.1310 C   0  0  0  0  0  3  0  0  0  0  0  0
   23.5010   13.9810   11.0150 C   0  0  0  0  0  3  0  0  0  0  0  0
   24.4850   13.0600   10.6810 C   0  0  0  0  0  0  0  0  0  0  0  0
   25.5130   13.4410    9.9100 F   0  0  0  0  0  0  0  0  0  0  0  0
  1  3  1  0
  1  5  1  0
  2  1  2  0
  3  4  1  0
  5 12  1  1
  5  9  1  0
  6  5  1  0
  7  6  1  0
  7  8  1  0
  8 10  1  0
  9 10  1  0
 11  6  1  0
 13  3  1  0
 14 13  1  0
 15 14  1  0
 16 14  2  0
 17 15  2  0
 18 16  1  0
 19 18  2  0
 19 17  1  0
 20 19  1  0
M  RAD  8   7   3   8   3   9   3  10   3  11   2  12   2  13   3  15   2
M  RAD  3  16   2  17   2  18   2
M  END
>  <vina_score>  (3) 
-6.1239999999999997

>  <pose_id>  (3) 
3

$$$$

     RDKit          3D

 20 21  0  0  1  0  0  0  0  0999 V2000
   17.8130   12.9630   15.4690 C   0  0  0  0  0  0  0  0  0  0  0  0
   18.4760   12.2520   14.7160 O   0  0  0  0  0  0  0  0  0  0  0  0
   17.9760   12.8960   16.8430 N   0  0  0  0  0  0  0  0  0  0  0  0
   17.2690   13.3060   17.4370 H   0  0  0  0  0  0  0  0  0  0  0  0
   16.6740   13.9350   14.9910 C   0  0  1  0  0  0  0  0  0  0  0  0
   17.1810   15.1010   14.1990 N   0  0  0  0  0  0  0  0  0  0  0  0
   17.3480   14.7900   12.7810 C   0  0  0  0  0  2  0  0  0  0  0  0
   15.9800   14.5550   12.1330 C   0  0  0  0  0  2  0  0  0  0  0  0
   15.7000   13.0650   14.1390 C   0  0  0  0  0  2  0  0  0  0  0  0
   14.9800   13.8770   13.0690 C   0  0  0  0  0  2  0  0  0  0  0  0
   18.3510   15.7860   14.7420 C   0  0  0  0  0  1  0  0  0  0  0  0
   15.9130   14.5240   16.1990 C   0  0  0  0  0  1  0  0  0  0  0  0
   18.8540   11.9250   17.4550 C   0  0  0  0  0  2  0  0  0  0  0  0
   18.4290   11.6500   18.8760 C   0  0  0  0  0  0  0  0  0  0  0  0
   19.2730   11.9680   19.9510 C   0  0  0  0  0  3  0  0  0  0  0  0
   17.1590   11.1080   19.1400 C   0  0  0  0  0  3  0  0  0  0  0  0
   18.8600   11.7350   21.2650 C   0  0  0  0  0  3  0  0  0  0  0  0
   16.7480   10.8770   20.4530 C   0  0  0  0  0  3  0  0  0  0  0  0
   17.6020   11.1920   21.5020 C   0  0  0  0  0  0  0  0  0  0  0  0
   17.2080   10.9720   22.7630 F   0  0  0  0  0  0  0  0  0  0  0  0
  1  3  1  0
  2  1  2  0
  3  4  1  0
  3 13  1  0
  5  1  1  0
  5 12  1  1
  6 11  1  0
  6  5  1  0
  7  6  1  0
  8  7  1  0
  8 10  1  0
  9  5  1  0
 10  9  1  0
 13 14  1  0
 14 16  2  0
 14 15  1  0
 15 17  2  0
 16 18  1  0
 17 19  1  0
 18 19  2  0
 19 20  1  0
M  RAD  8   7   3   8   3   9   3  10   3  11   2  12   2  13   3  15   2
M  RAD  3  16   2  17   2  18   2
M  END
>  <vina_score>  (4) 
-6.0609999999999999

>  <pose_id>  (4) 
4

$$$$

     RDKit          3D

 20 21  0  0  1  0  0  0  0  0999 V2000
   19.4010   14.9700   14.1300 C   0  0  0  0  0  0  0  0  0  0  0  0
   19.6750   15.1250   15.3200 O   0  0  0  0  0  0  0  0  0  0  0  0
   20.3970   14.9350   13.1680 N   0  0  0  0  0  0  0  0  0  0  0  0
   20.1390   15.0430   12.1980 H   0  0  0  0  0  0  0  0  0  0  0  0
   17.9380   14.8880   13.5640 C   0  0  1  0  0  0  0  0  0  0  0  0
   17.2300   13.6190   13.9270 N   0  0  0  0  0  0  0  0  0  0  0  0
   16.5910   13.6850   15.2390 C   0  0  0  0  0  2  0  0  0  0  0  0
   15.4290   14.6810   15.2040 C   0  0  0  0  0  2  0  0  0  0  0  0
   17.1870   16.1280   14.1380 C   0  0  0  0  0  2  0  0  0  0  0  0
   15.6920   15.8810   14.2940 C   0  0  0  0  0  2  0  0  0  0  0  0
   17.9960   12.3870   13.7610 C   0  0  0  0  0  1  0  0  0  0  0  0
   17.9440   14.9610   12.0210 C   0  0  0  0  0  1  0  0  0  0  0  0
   21.7820   15.1750   13.5010 C   0  0  0  0  0  2  0  0  0  0  0  0
   22.6900   14.3960   12.5830 C   0  0  0  0  0  0  0  0  0  0  0  0
   22.6840   14.6320   11.1990 C   0  0  0  0  0  3  0  0  0  0  0  0
   23.5860   13.4510   13.1120 C   0  0  0  0  0  3  0  0  0  0  0  0
   23.5470   13.9250   10.3600 C   0  0  0  0  0  3  0  0  0  0  0  0
   24.4480   12.7470   12.2710 C   0  0  0  0  0  3  0  0  0  0  0  0
   24.4200   12.9900   10.9040 C   0  0  0  0  0  0  0  0  0  0  0  0
   25.2480   12.3150   10.0960 F   0  0  0  0  0  0  0  0  0  0  0  0
  1  2  2  0
  3 13  1  0
  3  1  1  0
  4  3  1  0
  5 12  1  6
  5  6  1  0
  5  1  1  0
  5  9  1  0
  6  7  1  0
  8  7  1  0
  9 10  1  0
 10  8  1  0
 11  6  1  0
 14 16  2  0
 14 13  1  0
 15 14  1  0
 17 19  1  0
 17 15  2  0
 18 16  1  0
 19 18  2  0
 20 19  1  0
M  RAD  8   7   3   8   3   9   3  10   3  11   2  12   2  13   3  15   2
M  RAD  3  16   2  17   2  18   2
M  END
>  <vina_score>  (5) 
-6.0289999999999999

>  <pose_id>  (5) 
5

$$$$
