
     RDKit          3D

 23 25  0  0  1  0  0  0  0  0999 V2000
   20.9260   10.2200   13.6440 C   0  0  0  0  0  2  0  0  0  0  0  0
   20.4920   11.5740   14.1840 C   0  0  0  0  0  0  0  0  0  0  0  0
   20.6750   11.8670   15.3640 O   0  0  0  0  0  0  0  0  0  0  0  0
   20.0080   12.4560   13.2460 N   0  0  0  0  0  0  0  0  0  0  0  0
   20.1890   12.1880   12.2840 H   0  0  0  0  0  0  0  0  0  0  0  0
   19.8660   13.8820   13.5110 C   0  0  0  0  0  3  0  0  0  0  0  0
   18.5120   14.1810   14.1820 C   0  0  0  0  0  2  0  0  0  0  0  0
   20.0080   14.6660   12.2160 C   0  0  0  0  0  0  0  0  0  0  0  0
   17.3510   13.9700   13.2140 C   0  0  0  0  0  2  0  0  0  0  0  0
   21.2920   14.9460   11.7150 C   0  0  0  0  0  3  0  0  0  0  0  0
   18.8780   15.0900   11.4870 C   0  0  0  0  0  0  0  0  0  0  0  0
   17.4650   14.8850   11.9910 C   0  0  0  0  0  2  0  0  0  0  0  0
   21.4580   15.6340   10.5140 C   0  0  0  0  0  3  0  0  0  0  0  0
   19.0610   15.7860   10.2810 C   0  0  0  0  0  3  0  0  0  0  0  0
   20.3430   16.0510    9.7950 C   0  0  0  0  0  3  0  0  0  0  0  0
   22.7200    9.9060   13.7660 S   0  0  0  0  0  0  0  0  0  0  0  0
   23.3790   11.3350   12.9030 C   0  0  0  0  0  0  0  0  0  0  0  0
   23.3690   11.3450   11.5020 C   0  0  0  0  0  3  0  0  0  0  0  0
   23.9750   12.4070   13.5850 C   0  0  0  0  0  0  0  0  0  0  0  0
   23.9280   12.4080   10.7950 C   0  0  0  0  0  3  0  0  0  0  0  0
   24.5390   13.4650   12.8730 C   0  0  0  0  0  3  0  0  0  0  0  0
   24.5140   13.4640   11.4790 C   0  0  0  0  0  3  0  0  0  0  0  0
   24.0640   12.4880   15.3110 Cl  0  0  0  0  0  0  0  0  0  0  0  0
  1 16  1  0
  1  2  1  0
  2  3  2  0
  4  2  1  0
  5  4  1  0
  6  4  1  0
  6  7  1  0
  8  6  1  0
  9  7  1  0
 10  8  2  0
 11 12  1  0
 11  8  1  0
 12  9  1  0
 13 10  1  0
 14 11  2  0
 15 14  1  0
 15 13  2  0
 17 19  1  0
 17 16  1  0
 18 17  2  0
 19 23  1  0
 20 22  2  0
 20 18  1  0
 21 19  2  0
 22 21  1  0
M  RAD  8   1   3   6   2   7   3   9   3  10   2  12   3  13   2  14   2
M  RAD  5  15   2  18   2  20   2  21   2  22   2
M  END
>  <vina_score>  (1) 
-6.5830000000000002

>  <pose_id>  (1) 
1

$$$$

     RDKit          3D

 23 25  0  0  1  0  0  0  0  0999 V2000
   18.3320   12.1340   13.7680 C   0  0  0  0  0  2  0  0  0  0  0  0
   19.4300   11.1510   13.3950 C   0  0  0  0  0  0  0  0  0  0  0  0
   19.3690   10.5110   12.3470 O   0  0  0  0  0  0  0  0  0  0  0  0
   20.5160   11.1300   14.2390 N   0  0  0  0  0  0  0  0  0  0  0  0
   20.5610   11.9110   14.8870 H   0  0  0  0  0  0  0  0  0  0  0  0
   21.7850   10.5170   13.8680 C   0  0  0  0  0  3  0  0  0  0  0  0
   22.4190    9.8020   15.0760 C   0  0  0  0  0  2  0  0  0  0  0  0
   22.7280   11.5720   13.3140 C   0  0  0  0  0  0  0  0  0  0  0  0
   22.8990   10.7990   16.1270 C   0  0  0  0  0  2  0  0  0  0  0  0
   22.6000   11.9780   11.9730 C   0  0  0  0  0  3  0  0  0  0  0  0
   23.7100   12.1790   14.1250 C   0  0  0  0  0  0  0  0  0  0  0  0
   23.9530   11.7520   15.5570 C   0  0  0  0  0  2  0  0  0  0  0  0
   23.4270   12.9670   11.4420 C   0  0  0  0  0  3  0  0  0  0  0  0
   24.5380   13.1700   13.5740 C   0  0  0  0  0  3  0  0  0  0  0  0
   24.3930   13.5650   12.2430 C   0  0  0  0  0  3  0  0  0  0  0  0
   18.9340   13.8050   14.1910 S   0  0  0  0  0  0  0  0  0  0  0  0
   19.0430   14.5530   12.5650 C   0  0  0  0  0  0  0  0  0  0  0  0
   20.3070   14.7660   11.9980 C   0  0  0  0  0  3  0  0  0  0  0  0
   17.9070   15.0050   11.8760 C   0  0  0  0  0  0  0  0  0  0  0  0
   20.4360   15.4010   10.7650 C   0  0  0  0  0  3  0  0  0  0  0  0
   18.0410   15.6450   10.6440 C   0  0  0  0  0  3  0  0  0  0  0  0
   19.3050   15.8430   10.0910 C   0  0  0  0  0  3  0  0  0  0  0  0
   16.3000   14.8160   12.4900 Cl  0  0  0  0  0  0  0  0  0  0  0  0
  1 16  1  0
  2  1  1  0
  2  4  1  0
  3  2  2  0
  4  5  1  0
  6  4  1  0
  6  7  1  0
  7  9  1  0
  8  6  1  0
  8 11  1  0
 10  8  2  0
 11 12  1  0
 12  9  1  0
 13 10  1  0
 13 15  2  0
 14 11  2  0
 15 14  1  0
 17 16  1  0
 18 17  2  0
 19 23  1  0
 19 17  1  0
 20 18  1  0
 21 19  2  0
 22 21  1  0
 22 20  2  0
M  RAD  8   1   3   6   2   7   3   9   3  10   2  12   3  13   2  14   2
M  RAD  5  15   2  18   2  20   2  21   2  22   2
M  END
>  <vina_score>  (2) 
-6.5679999999999996

>  <pose_id>  (2) 
2

$$$$

     RDKit          3D

 23 25  0  0  1  0  0  0  0  0999 V2000
   17.7880   11.1200   16.4930 C   0  0  0  0  0  2  0  0  0  0  0  0
   17.8060    9.9250   17.4330 C   0  0  0  0  0  0  0  0  0  0  0  0
   18.5520    8.9710   17.2210 O   0  0  0  0  0  0  0  0  0  0  0  0
   17.0350   10.0520   18.5640 N   0  0  0  0  0  0  0  0  0  0  0  0
   16.7120   10.9970   18.7500 H   0  0  0  0  0  0  0  0  0  0  0  0
   17.1860    9.1770   19.7190 C   0  0  0  0  0  3  0  0  0  0  0  0
   15.9170    8.3310   19.9340 C   0  0  0  0  0  2  0  0  0  0  0  0
   17.4960   10.0020   20.9580 C   0  0  0  0  0  0  0  0  0  0  0  0
   14.7450    9.1900   20.4000 C   0  0  0  0  0  2  0  0  0  0  0  0
   18.8150   10.4360   21.1870 C   0  0  0  0  0  3  0  0  0  0  0  0
   16.4840   10.3720   21.8670 C   0  0  0  0  0  0  0  0  0  0  0  0
   15.0550    9.8910   21.7260 C   0  0  0  0  0  2  0  0  0  0  0  0
   19.1290   11.2210   22.2950 C   0  0  0  0  0  3  0  0  0  0  0  0
   16.8160   11.1590   22.9810 C   0  0  0  0  0  3  0  0  0  0  0  0
   18.1290   11.5860   23.1900 C   0  0  0  0  0  3  0  0  0  0  0  0
   16.7610   12.5130   17.0720 S   0  0  0  0  0  0  0  0  0  0  0  0
   16.1260   13.1420   15.5160 C   0  0  0  0  0  0  0  0  0  0  0  0
   16.1360   12.3070   14.3910 C   0  0  0  0  0  3  0  0  0  0  0  0
   15.6940   14.4690   15.3710 C   0  0  0  0  0  0  0  0  0  0  0  0
   15.7110   12.7790   13.1510 C   0  0  0  0  0  3  0  0  0  0  0  0
   15.2740   14.9390   14.1270 C   0  0  0  0  0  3  0  0  0  0  0  0
   15.2840   14.0930   13.0190 C   0  0  0  0  0  3  0  0  0  0  0  0
   15.6600   15.5940   16.6860 Cl  0  0  0  0  0  0  0  0  0  0  0  0
  1 16  1  0
  1  2  1  0
  2  4  1  0
  3  2  2  0
  4  5  1  0
  6  4  1  0
  6  7  1  0
  6  8  1  0
  7  9  1  0
  8 10  2  0
  8 11  1  0
  9 12  1  0
 10 13  1  0
 11 14  2  0
 12 11  1  0
 13 15  2  0
 14 15  1  0
 17 16  1  0
 18 17  2  0
 19 17  1  0
 19 23  1  0
 20 18  1  0
 21 19  2  0
 22 20  2  0
 22 21  1  0
M  RAD  8   1   3   6   2   7   3   9   3  10   2  12   3  13   2  14   2
M  RAD  5  15   2  18   2  20   2  21   2  22   2
M  END
>  <vina_score>  (3) 
-6.5359999999999996

>  <pose_id>  (3) 
3

$$$$

     RDKit          3D

 23 25  0  0  1  0  0  0  0  0999 V2000
   18.5510   12.3330   16.9210 C   0  0  0  0  0  2  0  0  0  0  0  0
   18.9060   11.1170   17.7620 C   0  0  0  0  0  0  0  0  0  0  0  0
   20.0630   10.7000   17.8040 O   0  0  0  0  0  0  0  0  0  0  0  0
   17.8880   10.6170   18.5380 N   0  0  0  0  0  0  0  0  0  0  0  0
   17.0840   11.2320   18.6250 H   0  0  0  0  0  0  0  0  0  0  0  0
   18.1220    9.6910   19.6380 C   0  0  0  0  0  3  0  0  0  0  0  0
   17.2900    8.4070   19.4570 C   0  0  0  0  0  2  0  0  0  0  0  0
   17.7900   10.3630   20.9610 C   0  0  0  0  0  0  0  0  0  0  0  0
   15.8000    8.6760   19.6460 C   0  0  0  0  0  2  0  0  0  0  0  0
   18.7350   11.2180   21.5570 C   0  0  0  0  0  3  0  0  0  0  0  0
   16.5420   10.1740   21.5880 C   0  0  0  0  0  0  0  0  0  0  0  0
   15.4990    9.2200   21.0440 C   0  0  0  0  0  2  0  0  0  0  0  0
   18.4510   11.8760   22.7530 C   0  0  0  0  0  3  0  0  0  0  0  0
   16.2720   10.8400   22.7950 C   0  0  0  0  0  3  0  0  0  0  0  0
   17.2190   11.6900   23.3700 C   0  0  0  0  0  3  0  0  0  0  0  0
   17.2480   12.0290   15.6790 S   0  0  0  0  0  0  0  0  0  0  0  0
   16.4510   13.6350   15.6170 C   0  0  0  0  0  0  0  0  0  0  0  0
   15.7840   14.1070   16.7550 C   0  0  0  0  0  3  0  0  0  0  0  0
   16.4070   14.3990   14.4400 C   0  0  0  0  0  0  0  0  0  0  0  0
   15.0990   15.3200   16.7270 C   0  0  0  0  0  3  0  0  0  0  0  0
   15.7160   15.6100   14.4150 C   0  0  0  0  0  3  0  0  0  0  0  0
   15.0630   16.0690   15.5580 C   0  0  0  0  0  3  0  0  0  0  0  0
   17.1760   13.9040   12.9710 Cl  0  0  0  0  0  0  0  0  0  0  0  0
  1  2  1  0
  2  3  2  0
  2  4  1  0
  4  5  1  0
  6  4  1  0
  6  8  1  0
  7  6  1  0
  7  9  1  0
  8 10  2  0
  8 11  1  0
  9 12  1  0
 10 13  1  0
 11 14  2  0
 12 11  1  0
 13 15  2  0
 14 15  1  0
 16  1  1  0
 17 16  1  0
 17 18  2  0
 19 17  1  0
 20 18  1  0
 21 19  2  0
 21 22  1  0
 22 20  2  0
 23 19  1  0
M  RAD  8   1   3   6   2   7   3   9   3  10   2  12   3  13   2  14   2
M  RAD  5  15   2  18   2  20   2  21   2  22   2
M  END
>  <vina_score>  (4) 
-6.3689999999999998

>  <pose_id>  (4) 
4

$$$$

     RDKit          3D

 23 25  0  0  1  0  0  0  0  0999 V2000
   20.5740   10.9360   19.0520 C   0  0  0  0  0  2  0  0  0  0  0  0
   21.4320   10.1580   18.0660 C   0  0  0  0  0  0  0  0  0  0  0  0
   21.3270    8.9360   17.9710 O   0  0  0  0  0  0  0  0  0  0  0  0
   22.2170   10.9220   17.2350 N   0  0  0  0  0  0  0  0  0  0  0  0
   21.9830   11.9100   17.2260 H   0  0  0  0  0  0  0  0  0  0  0  0
   22.8340   10.3870   16.0280 C   0  0  0  0  0  3  0  0  0  0  0  0
   24.3250   10.0800   16.2670 C   0  0  0  0  0  2  0  0  0  0  0  0
   22.6660   11.3700   14.8810 C   0  0  0  0  0  0  0  0  0  0  0  0
   25.1380   11.3590   16.4390 C   0  0  0  0  0  2  0  0  0  0  0  0
   21.4510   11.4060   14.1730 C   0  0  0  0  0  3  0  0  0  0  0  0
   23.6920   12.2730   14.5300 C   0  0  0  0  0  0  0  0  0  0  0  0
   25.0500   12.2530   15.1990 C   0  0  0  0  0  2  0  0  0  0  0  0
   21.2510   12.3170   13.1380 C   0  0  0  0  0  3  0  0  0  0  0  0
   23.4770   13.1810   13.4820 C   0  0  0  0  0  3  0  0  0  0  0  0
   22.2620   13.2070   12.7940 C   0  0  0  0  0  3  0  0  0  0  0  0
   20.7310   10.3770   20.7830 S   0  0  0  0  0  0  0  0  0  0  0  0
   19.0430   10.5650   21.3590 C   0  0  0  0  0  0  0  0  0  0  0  0
   18.7640   11.5190   22.3460 C   0  0  0  0  0  3  0  0  0  0  0  0
   18.0060    9.7320   20.9100 C   0  0  0  0  0  0  0  0  0  0  0  0
   17.4770   11.6520   22.8640 C   0  0  0  0  0  3  0  0  0  0  0  0
   16.7210    9.8650   21.4350 C   0  0  0  0  0  3  0  0  0  0  0  0
   16.4590   10.8240   22.4120 C   0  0  0  0  0  3  0  0  0  0  0  0
   18.2400    8.5060   19.7110 Cl  0  0  0  0  0  0  0  0  0  0  0  0
  1 16  1  0
  2  1  1  0
  3  2  2  0
  4  2  1  0
  5  4  1  0
  6  7  1  0
  6  4  1  0
  7  9  1  0
  8  6  1  0
 10  8  2  0
 11  8  1  0
 11 12  1  0
 12  9  1  0
 13 10  1  0
 14 11  2  0
 15 13  2  0
 15 14  1  0
 16 17  1  0
 17 18  2  0
 18 20  1  0
 19 17  1  0
 19 21  2  0
 21 22  1  0
 22 20  2  0
 23 19  1  0
M  RAD  8   1   3   6   2   7   3   9   3  10   2  12   3  13   2  14   2
M  RAD  5  15   2  18   2  20   2  21   2  22   2
M  END
>  <vina_score>  (5) 
-6.242

>  <pose_id>  (5) 
5

$$$$
