
     RDKit          3D

 26 28  0  0  0  0  0  0  0  0999 V2000
   15.4910   11.4920   18.7180 C   0  0  0  0  0  0  0  0  0  0  0  0
   14.3380   11.7890   19.0190 O   0  0  0  0  0  0  0  0  0  0  0  0
   16.2670   12.1150   17.7500 N   0  0  0  0  0  0  0  0  0  0  0  0
   17.2110   11.7710   17.6290 H   0  0  0  0  0  0  0  0  0  0  0  0
   16.2290   10.3640   19.4330 C   0  0  0  0  0  2  0  0  0  0  0  0
   16.8970   10.8170   20.7160 C   0  0  0  0  0  0  0  0  0  0  0  0
   18.2460   11.2320   20.7610 C   0  0  0  0  0  0  0  0  0  0  0  0
   18.7920   11.6570   21.9840 C   0  0  0  0  0  3  0  0  0  0  0  0
   18.0210   11.6720   23.1490 C   0  0  0  0  0  3  0  0  0  0  0  0
   16.1300   10.8450   21.8980 C   0  0  0  0  0  3  0  0  0  0  0  0
   16.6900   11.2670   23.1060 C   0  0  0  0  0  3  0  0  0  0  0  0
   19.1180   11.2570   19.5330 C   0  0  0  0  0  1  0  0  0  0  0  0
   15.9000   13.1950   16.9200 C   0  0  0  0  0  0  0  0  0  0  0  0
   15.4480   14.4310   17.3930 C   0  0  0  0  0  3  0  0  0  0  0  0
   16.0030   12.9960   15.5380 C   0  0  0  0  0  3  0  0  0  0  0  0
   15.1070   15.4580   16.5040 C   0  0  0  0  0  3  0  0  0  0  0  0
   15.6530   14.0240   14.6560 C   0  0  0  0  0  0  0  0  0  0  0  0
   15.2100   15.2600   15.1300 C   0  0  0  0  0  3  0  0  0  0  0  0
   15.7820   13.7730   12.9050 S   0  0  2  0  0  0  0  0  0  0  0  0
   14.4910   14.0530   12.3060 O   0  0  0  0  0  0  0  0  0  0  0  0
   16.4460   12.5050   12.6930 O   0  0  0  0  0  0  0  0  0  0  0  0
   16.8400   15.0130   12.4380 N   0  0  0  0  0  0  0  0  0  0  0  0
   18.2720   14.6200   12.3810 C   0  0  0  0  0  2  0  0  0  0  0  0
   16.5120   15.7650   11.1950 C   0  0  0  0  0  2  0  0  0  0  0  0
   18.8780   15.5780   11.3660 C   0  0  0  0  0  2  0  0  0  0  0  0
   17.7700   15.6980   10.3390 C   0  0  0  0  0  2  0  0  0  0  0  0
  1  2  2  0
  1  5  1  0
  3  1  1  0
  4  3  1  0
  5  6  1  0
  6  7  1  0
  6 10  2  0
  7  8  2  0
  8  9  1  0
 10 11  1  0
 11  9  2  0
 12  7  1  0
 13 14  1  0
 13  3  1  0
 15 13  2  0
 16 14  2  0
 17 18  2  0
 17 15  1  0
 18 16  1  0
 19 17  1  0
 20 19  2  0
 21 19  2  0
 19 22  1  6
 23 22  1  0
 24 22  1  0
 25 23  1  0
 26 24  1  0
 26 25  1  0
M  RAD  8   5   3   8   2   9   2  10   2  11   2  12   2  14   2  15   2
M  RAD  6  16   2  18   2  23   3  24   3  25   3  26   3
M  END
>  <vina_score>  (1) 
-7.9009999999999998

>  <pose_id>  (1) 
1

$$$$

     RDKit          3D

 26 28  0  0  0  0  0  0  0  0999 V2000
   18.4880   15.7000   11.4470 C   0  0  0  0  0  0  0  0  0  0  0  0
   18.1040   15.3880   10.3230 O   0  0  0  0  0  0  0  0  0  0  0  0
   19.8080   15.7650   11.8690 N   0  0  0  0  0  0  0  0  0  0  0  0
   19.9700   16.0600   12.8240 H   0  0  0  0  0  0  0  0  0  0  0  0
   17.4970   16.0900   12.5400 C   0  0  0  0  0  2  0  0  0  0  0  0
   16.9310   14.8950   13.2780 C   0  0  0  0  0  0  0  0  0  0  0  0
   15.7620   14.2260   12.8510 C   0  0  0  0  0  0  0  0  0  0  0  0
   15.3060   13.1110   13.5760 C   0  0  0  0  0  3  0  0  0  0  0  0
   15.9900   12.6610   14.7070 C   0  0  0  0  0  3  0  0  0  0  0  0
   17.6140   14.4230   14.4170 C   0  0  0  0  0  3  0  0  0  0  0  0
   17.1440   13.3160   15.1270 C   0  0  0  0  0  3  0  0  0  0  0  0
   14.9960   14.6540   11.6260 C   0  0  0  0  0  1  0  0  0  0  0  0
   20.9660   15.4850   11.1130 C   0  0  0  0  0  0  0  0  0  0  0  0
   21.3850   16.2380   10.0110 C   0  0  0  0  0  3  0  0  0  0  0  0
   21.7290   14.3800   11.5060 C   0  0  0  0  0  3  0  0  0  0  0  0
   22.5510   15.8990    9.3130 C   0  0  0  0  0  3  0  0  0  0  0  0
   22.8880   14.0430   10.7990 C   0  0  0  0  0  0  0  0  0  0  0  0
   23.3100   14.8010    9.7060 C   0  0  0  0  0  3  0  0  0  0  0  0
   23.8560   12.6420   11.2960 S   0  0  2  0  0  0  0  0  0  0  0  0
   25.2570   12.9680   11.1210 O   0  0  0  0  0  0  0  0  0  0  0  0
   23.2760   11.4700   10.6780 O   0  0  0  0  0  0  0  0  0  0  0  0
   23.5550   12.5680   12.9640 N   0  0  0  0  0  0  0  0  0  0  0  0
   23.1500   11.2290   13.4650 C   0  0  0  0  0  2  0  0  0  0  0  0
   24.6000   13.1120   13.8750 C   0  0  0  0  0  2  0  0  0  0  0  0
   23.5820   11.2340   14.9230 C   0  0  0  0  0  2  0  0  0  0  0  0
   24.8920   11.9930   14.8670 C   0  0  0  0  0  2  0  0  0  0  0  0
  1  3  1  0
  1  5  1  0
  2  1  2  0
  3  4  1  0
  5  6  1  0
  6 10  2  0
  7  6  1  0
  7  8  2  0
  8  9  1  0
  9 11  2  0
 10 11  1  0
 12  7  1  0
 13 15  2  0
 13  3  1  0
 14 13  1  0
 16 18  1  0
 16 14  2  0
 17 19  1  0
 17 15  1  0
 18 17  2  0
 19 22  1  1
 20 19  2  0
 21 19  2  0
 22 23  1  0
 22 24  1  0
 23 25  1  0
 24 26  1  0
 26 25  1  0
M  RAD  8   5   3   8   2   9   2  10   2  11   2  12   2  14   2  15   2
M  RAD  6  16   2  18   2  23   3  24   3  25   3  26   3
M  END
>  <vina_score>  (2) 
-7.7709999999999999

>  <pose_id>  (2) 
2

$$$$

     RDKit          3D

 26 28  0  0  0  0  0  0  0  0999 V2000
   20.8120   11.2540   19.4880 C   0  0  0  0  0  0  0  0  0  0  0  0
   21.4190   10.9660   20.5170 O   0  0  0  0  0  0  0  0  0  0  0  0
   21.1720   10.8860   18.2000 N   0  0  0  0  0  0  0  0  0  0  0  0
   20.5580   11.1810   17.4500 H   0  0  0  0  0  0  0  0  0  0  0  0
   19.5210   12.0670   19.5330 C   0  0  0  0  0  2  0  0  0  0  0  0
   18.4970   11.4970   20.4930 C   0  0  0  0  0  0  0  0  0  0  0  0
   17.5990   10.4720   20.1200 C   0  0  0  0  0  0  0  0  0  0  0  0
   16.6880    9.9790   21.0700 C   0  0  0  0  0  3  0  0  0  0  0  0
   16.6610   10.4880   22.3700 C   0  0  0  0  0  3  0  0  0  0  0  0
   18.4620   11.9940   21.8110 C   0  0  0  0  0  3  0  0  0  0  0  0
   17.5480   11.4950   22.7410 C   0  0  0  0  0  3  0  0  0  0  0  0
   17.5980    9.8710   18.7380 C   0  0  0  0  0  1  0  0  0  0  0  0
   22.2920   10.1250   17.8050 C   0  0  0  0  0  0  0  0  0  0  0  0
   22.5740    8.8390   18.2790 C   0  0  0  0  0  3  0  0  0  0  0  0
   23.1650   10.7110   16.8820 C   0  0  0  0  0  3  0  0  0  0  0  0
   23.7060    8.1440   17.8350 C   0  0  0  0  0  3  0  0  0  0  0  0
   24.2980   10.0140   16.4500 C   0  0  0  0  0  0  0  0  0  0  0  0
   24.5730    8.7270   16.9160 C   0  0  0  0  0  3  0  0  0  0  0  0
   25.4050   10.7570   15.2800 S   0  0  2  0  0  0  0  0  0  0  0  0
   26.1660    9.7030   14.6370 O   0  0  0  0  0  0  0  0  0  0  0  0
   26.0650   11.8600   15.9430 O   0  0  0  0  0  0  0  0  0  0  0  0
   24.3380   11.3920   14.1250 N   0  0  0  0  0  0  0  0  0  0  0  0
   24.4670   12.8550   13.8960 C   0  0  0  0  0  2  0  0  0  0  0  0
   24.2770   10.7150   12.8000 C   0  0  0  0  0  2  0  0  0  0  0  0
   23.9670   13.0520   12.4730 C   0  0  0  0  0  2  0  0  0  0  0  0
   24.5000   11.8180   11.7720 C   0  0  0  0  0  2  0  0  0  0  0  0
  1  5  1  0
  1  2  2  0
  3  1  1  0
  4  3  1  0
  5  6  1  0
  6 10  2  0
  7  6  1  0
  7  8  2  0
  8  9  1  0
  9 11  2  0
 10 11  1  0
 12  7  1  0
 13  3  1  0
 13 14  1  0
 15 13  2  0
 16 14  2  0
 17 15  1  0
 17 18  2  0
 18 16  1  0
 19 21  2  0
 19 17  1  0
 20 19  2  0
 19 22  1  6
 23 22  1  0
 24 22  1  0
 25 23  1  0
 26 25  1  0
 26 24  1  0
M  RAD  8   5   3   8   2   9   2  10   2  11   2  12   2  14   2  15   2
M  RAD  6  16   2  18   2  23   3  24   3  25   3  26   3
M  END
>  <vina_score>  (3) 
-7.766

>  <pose_id>  (3) 
3

$$$$

     RDKit          3D

 26 28  0  0  0  0  0  0  0  0999 V2000
   19.8940   13.7630   12.8940 C   0  0  0  0  0  0  0  0  0  0  0  0
   19.4750   12.6250   12.6990 O   0  0  0  0  0  0  0  0  0  0  0  0
   21.2280   14.1390   12.9630 N   0  0  0  0  0  0  0  0  0  0  0  0
   21.4190   15.1230   13.1080 H   0  0  0  0  0  0  0  0  0  0  0  0
   18.9370   14.9400   13.0630 C   0  0  0  0  0  2  0  0  0  0  0  0
   18.2810   15.3580   11.7630 C   0  0  0  0  0  0  0  0  0  0  0  0
   16.8780   15.4040   11.6040 C   0  0  0  0  0  0  0  0  0  0  0  0
   16.3400   15.8210   10.3750 C   0  0  0  0  0  3  0  0  0  0  0  0
   17.1720   16.1880    9.3140 C   0  0  0  0  0  3  0  0  0  0  0  0
   19.1060   15.7390   10.6860 C   0  0  0  0  0  3  0  0  0  0  0  0
   18.5550   16.1480    9.4700 C   0  0  0  0  0  3  0  0  0  0  0  0
   15.9330   15.0410   12.7200 C   0  0  0  0  0  1  0  0  0  0  0  0
   22.3620   13.3090   12.8350 C   0  0  0  0  0  0  0  0  0  0  0  0
   22.9520   12.9700   11.6130 C   0  0  0  0  0  3  0  0  0  0  0  0
   22.9160   12.8050   14.0160 C   0  0  0  0  0  3  0  0  0  0  0  0
   24.0820   12.1440   11.5670 C   0  0  0  0  0  3  0  0  0  0  0  0
   24.0400   11.9730   13.9620 C   0  0  0  0  0  0  0  0  0  0  0  0
   24.6330   11.6430   12.7430 C   0  0  0  0  0  3  0  0  0  0  0  0
   24.7420   11.3320   15.4600 S   0  0  2  0  0  0  0  0  0  0  0  0
   23.6870   11.2190   16.4480 O   0  0  0  0  0  0  0  0  0  0  0  0
   25.9480   12.0830   15.7330 O   0  0  0  0  0  0  0  0  0  0  0  0
   25.1860    9.7590   15.0070 N   0  0  0  0  0  0  0  0  0  0  0  0
   26.3240    9.1890   15.7730 C   0  0  0  0  0  2  0  0  0  0  0  0
   24.1080    8.7340   14.9390 C   0  0  0  0  0  2  0  0  0  0  0  0
   26.1050    7.6850   15.6960 C   0  0  0  0  0  2  0  0  0  0  0  0
   24.5970    7.5760   15.7990 C   0  0  0  0  0  2  0  0  0  0  0  0
  1  3  1  0
  1  5  1  0
  2  1  2  0
  3  4  1  0
  6  5  1  0
  7  6  1  0
  7 12  1  0
  8  7  2  0
  9 11  2  0
  9  8  1  0
 10  6  2  0
 11 10  1  0
 13  3  1  0
 13 15  2  0
 14 13  1  0
 16 14  2  0
 16 18  1  0
 17 15  1  0
 17 19  1  0
 18 17  2  0
 19 21  2  0
 19 20  2  0
 19 22  1  6
 22 23  1  0
 24 22  1  0
 24 26  1  0
 25 23  1  0
 25 26  1  0
M  RAD  8   5   3   8   2   9   2  10   2  11   2  12   2  14   2  15   2
M  RAD  6  16   2  18   2  23   3  24   3  25   3  26   3
M  END
>  <vina_score>  (4) 
-7.7210000000000001

>  <pose_id>  (4) 
4

$$$$

     RDKit          3D

 26 28  0  0  0  0  0  0  0  0999 V2000
   22.0400   14.9480   12.6840 C   0  0  0  0  0  0  0  0  0  0  0  0
   21.4990   15.2640   13.7400 O   0  0  0  0  0  0  0  0  0  0  0  0
   21.4340   14.9200   11.4350 N   0  0  0  0  0  0  0  0  0  0  0  0
   22.0160   14.6570   10.6490 H   0  0  0  0  0  0  0  0  0  0  0  0
   23.5140   14.5580   12.6350 C   0  0  0  0  0  2  0  0  0  0  0  0
   23.7260   13.0740   12.4120 C   0  0  0  0  0  0  0  0  0  0  0  0
   24.2910   12.5600   11.2240 C   0  0  0  0  0  0  0  0  0  0  0  0
   24.4750   11.1730   11.0960 C   0  0  0  0  0  3  0  0  0  0  0  0
   24.1070   10.3020   12.1230 C   0  0  0  0  0  3  0  0  0  0  0  0
   23.3680   12.1820   13.4430 C   0  0  0  0  0  3  0  0  0  0  0  0
   23.5540   10.8060   13.2970 C   0  0  0  0  0  3  0  0  0  0  0  0
   24.7250   13.4550   10.0910 C   0  0  0  0  0  1  0  0  0  0  0  0
   20.0950   15.2340   11.1230 C   0  0  0  0  0  0  0  0  0  0  0  0
   19.7060   16.0240   10.0360 C   0  0  0  0  0  3  0  0  0  0  0  0
   19.1070   14.7140   11.9670 C   0  0  0  0  0  3  0  0  0  0  0  0
   18.3540   16.2880    9.7880 C   0  0  0  0  0  3  0  0  0  0  0  0
   17.7580   14.9890   11.7180 C   0  0  0  0  0  0  0  0  0  0  0  0
   17.3720   15.7690   10.6270 C   0  0  0  0  0  3  0  0  0  0  0  0
   16.5060   14.3300   12.7880 S   0  0  2  0  0  0  0  0  0  0  0  0
   16.8200   12.9410   13.0590 O   0  0  0  0  0  0  0  0  0  0  0  0
   15.2210   14.7150   12.2450 O   0  0  0  0  0  0  0  0  0  0  0  0
   16.7610   15.1990   14.2220 N   0  0  0  0  0  0  0  0  0  0  0  0
   15.8370   16.3450   14.4270 C   0  0  0  0  0  2  0  0  0  0  0  0
   16.8340   14.4240   15.4910 C   0  0  0  0  0  2  0  0  0  0  0  0
   15.7900   16.5150   15.9380 C   0  0  0  0  0  2  0  0  0  0  0  0
   15.8230   15.0790   16.4230 C   0  0  0  0  0  2  0  0  0  0  0  0
  1  2  2  0
  3  1  1  0
  4  3  1  0
  5  1  1  0
  6  5  1  0
  6 10  2  0
  7  6  1  0
  8  7  2  0
  8  9  1  0
  9 11  2  0
 11 10  1  0
 12  7  1  0
 13  3  1  0
 13 15  2  0
 14 13  1  0
 16 14  2  0
 16 18  1  0
 17 15  1  0
 17 19  1  0
 18 17  2  0
 19 20  2  0
 19 22  1  1
 21 19  2  0
 22 23  1  0
 22 24  1  0
 23 25  1  0
 24 26  1  0
 25 26  1  0
M  RAD  8   5   3   8   2   9   2  10   2  11   2  12   2  14   2  15   2
M  RAD  6  16   2  18   2  23   3  24   3  25   3  26   3
M  END
>  <vina_score>  (5) 
-7.625

>  <pose_id>  (5) 
5

$$$$
