
     RDKit          3D

 33 36  0  0  1  0  0  0  0  0999 V2000
   18.0060   12.0410   14.4900 N   0  0  0  0  0  0  0  0  0  0  0  0
   16.9880   11.1540   13.9110 C   0  0  0  0  0  2  0  0  0  0  0  0
   17.5770   10.0250   13.0700 C   0  0  0  0  0  2  0  0  0  0  0  0
   18.6160    9.2270   13.8510 C   0  0  0  0  0  2  0  0  0  0  0  0
   19.6670   10.1200   14.5410 C   0  0  0  0  0  3  0  0  0  0  0  0
   18.9590   11.2540   15.3020 C   0  0  0  0  0  2  0  0  0  0  0  0
   18.6370   12.8770   13.4500 C   0  0  0  0  0  2  0  0  0  0  0  0
   19.4980   13.9490   14.0350 C   0  0  0  0  0  0  0  0  0  0  0  0
   20.8370   14.2450   13.8160 C   0  0  0  0  0  0  0  0  0  0  0  0
   21.0980   15.3260   14.6170 N   0  0  0  0  0  0  0  0  0  0  0  0
   20.0500   15.7490   15.3340 N   0  0  0  0  0  0  0  0  0  0  0  0
   19.0780   14.9140   14.9770 C   0  0  0  0  0  3  0  0  0  0  0  0
   21.9810   15.8110   14.7220 H   0  0  0  0  0  0  0  0  0  0  0  0
   21.8590   13.6530   12.9570 C   0  0  0  0  0  0  0  0  0  0  0  0
   23.8640   12.5520   11.3050 C   0  0  0  0  0  0  0  0  0  0  0  0
   23.3360   13.8100   11.0220 C   0  0  0  0  0  3  0  0  0  0  0  0
   23.3800   11.8440   12.4060 C   0  0  0  0  0  3  0  0  0  0  0  0
   22.3420   14.3560   11.8450 C   0  0  0  0  0  3  0  0  0  0  0  0
   22.3870   12.3910   13.2270 C   0  0  0  0  0  3  0  0  0  0  0  0
   24.8350   11.9100   10.5820 O   0  0  0  0  0  0  0  0  0  0  0  0
   24.8410   10.4870   10.6510 C   0  0  0  0  0  1  0  0  0  0  0  0
   20.5420    9.2150   15.4160 C   0  0  0  0  0  0  0  0  0  0  0  0
   20.0630    8.3660   16.1640 O   0  0  0  0  0  0  0  0  0  0  0  0
   22.0120    9.3150   15.3970 C   0  0  0  0  0  0  0  0  0  0  0  0
   22.6830    8.7420   14.3100 C   0  0  0  0  0  3  0  0  0  0  0  0
   22.7330    9.9720   16.3910 C   0  0  0  0  0  0  0  0  0  0  0  0
   24.0780    8.8020   14.2350 C   0  0  0  0  0  3  0  0  0  0  0  0
   24.1310    9.9970   16.3280 C   0  0  0  0  0  3  0  0  0  0  0  0
   24.8100    9.4240   15.2480 C   0  0  0  0  0  0  0  0  0  0  0  0
   22.0780   10.5480   17.4480 O   0  0  0  0  0  0  0  0  0  0  0  0
   22.6830   10.1920   18.6960 C   0  0  0  0  0  1  0  0  0  0  0  0
   26.1730    9.5390   15.2860 O   0  0  0  0  0  0  0  0  0  0  0  0
   26.7050   10.7350   15.8450 C   0  0  0  0  0  1  0  0  0  0  0  0
  1  6  1  0
  2  1  1  0
  4  3  1  0
  3  2  1  0
  4  5  1  0
  5  6  1  1
  5 22  1  0
  7  8  1  0
  7  1  1  0
  8 12  1  0
  9  8  2  0
  9 10  1  0
 10 13  1  0
 10 11  1  0
 12 11  2  0
 14 19  1  0
 14  9  1  0
 15 17  1  0
 16 15  2  0
 16 18  1  0
 17 19  2  0
 18 14  2  0
 20 21  1  0
 20 15  1  0
 22 23  2  0
 24 22  1  0
 24 26  1  0
 25 24  2  0
 26 30  1  0
 27 25  1  0
 27 29  2  0
 28 26  2  0
 29 32  1  0
 29 28  1  0
 30 31  1  0
 32 33  1  0
M  END
>  <vina_score>  (1) 
-6.9189999999999996

>  <pose_id>  (1) 
1

$$$$

     RDKit          3D

 33 36  0  0  1  0  0  0  0  0999 V2000
   23.1850   11.7480   13.8460 N   0  0  0  0  0  0  0  0  0  0  0  0
   24.4410   11.6300   13.0940 C   0  0  0  0  0  2  0  0  0  0  0  0
   24.2810   11.9160   11.6030 C   0  0  0  0  0  2  0  0  0  0  0  0
   23.6230   13.2690   11.3580 C   0  0  0  0  0  2  0  0  0  0  0  0
   22.3370   13.4710   12.1850 C   0  0  0  0  0  3  0  0  0  0  0  0
   22.6030   13.0930   13.6520 C   0  0  0  0  0  2  0  0  0  0  0  0
   22.2680   10.6350   13.5280 C   0  0  0  0  0  2  0  0  0  0  0  0
   22.7060    9.3500   14.1530 C   0  0  0  0  0  0  0  0  0  0  0  0
   22.6820    8.9440   15.4800 C   0  0  0  0  0  0  0  0  0  0  0  0
   23.2030    7.6760   15.4730 N   0  0  0  0  0  0  0  0  0  0  0  0
   23.5620    7.2320   14.2620 N   0  0  0  0  0  0  0  0  0  0  0  0
   23.2560    8.2490   13.4610 C   0  0  0  0  0  3  0  0  0  0  0  0
   23.3460    7.0680   16.2710 H   0  0  0  0  0  0  0  0  0  0  0  0
   22.2280    9.5880   16.7100 C   0  0  0  0  0  0  0  0  0  0  0  0
   21.3150   10.7930   19.0920 C   0  0  0  0  0  0  0  0  0  0  0  0
   20.4250   10.5330   18.0530 C   0  0  0  0  0  3  0  0  0  0  0  0
   22.6610   10.4590   18.9330 C   0  0  0  0  0  3  0  0  0  0  0  0
   20.8800    9.9330   16.8720 C   0  0  0  0  0  3  0  0  0  0  0  0
   23.1140    9.8600   17.7530 C   0  0  0  0  0  3  0  0  0  0  0  0
   20.9990   11.3730   20.2920 O   0  0  0  0  0  0  0  0  0  0  0  0
   20.6850   10.4880   21.3630 C   0  0  0  0  0  1  0  0  0  0  0  0
   21.8720   14.9170   11.9740 C   0  0  0  0  0  0  0  0  0  0  0  0
   22.5630   15.8800   12.2960 O   0  0  0  0  0  0  0  0  0  0  0  0
   20.5670   15.2240   11.3630 C   0  0  0  0  0  0  0  0  0  0  0  0
   20.5680   15.7140   10.0510 C   0  0  0  0  0  3  0  0  0  0  0  0
   19.3590   15.0190   12.0270 C   0  0  0  0  0  0  0  0  0  0  0  0
   19.3610   16.0250    9.4170 C   0  0  0  0  0  3  0  0  0  0  0  0
   18.1580   15.3650   11.3990 C   0  0  0  0  0  3  0  0  0  0  0  0
   18.1510   15.8590   10.0900 C   0  0  0  0  0  0  0  0  0  0  0  0
   19.3540   14.5230   13.3040 O   0  0  0  0  0  0  0  0  0  0  0  0
   18.7230   13.2400   13.3650 C   0  0  0  0  0  1  0  0  0  0  0  0
   16.9120   16.1340    9.5760 O   0  0  0  0  0  0  0  0  0  0  0  0
   15.8140   16.0920   10.4790 C   0  0  0  0  0  1  0  0  0  0  0  0
  2  1  1  0
  3  2  1  0
  4  3  1  1
  5  4  1  0
  5 22  1  0
  5  6  1  0
  6  1  1  1
  7  1  1  0
  7  8  1  0
  8  9  2  0
  9 14  1  0
 10  9  1  0
 10 13  1  0
 11 10  1  0
 12  8  1  0
 12 11  2  0
 14 18  2  0
 14 19  1  0
 15 20  1  0
 16 15  2  0
 17 15  1  0
 18 16  1  0
 19 17  2  0
 20 21  1  0
 22 23  2  0
 24 22  1  0
 24 26  1  0
 25 24  2  0
 26 30  1  0
 27 25  1  0
 27 29  2  0
 28 26  2  0
 29 28  1  0
 30 31  1  0
 32 29  1  0
 32 33  1  0
M  END
>  <vina_score>  (2) 
-6.9059999999999997

>  <pose_id>  (2) 
2

$$$$

     RDKit          3D

 33 36  0  0  1  0  0  0  0  0999 V2000
   17.4010   12.3480   15.3880 N   0  0  0  0  0  0  0  0  0  0  0  0
   18.3560   11.8210   14.4030 C   0  0  0  0  0  2  0  0  0  0  0  0
   19.7530   11.5990   14.9760 C   0  0  0  0  0  2  0  0  0  0  0  0
   19.7150   10.7230   16.2240 C   0  0  0  0  0  2  0  0  0  0  0  0
   18.6730   11.1930   17.2580 C   0  0  0  0  0  3  0  0  0  0  0  0
   17.3270   11.4450   16.5550 C   0  0  0  0  0  2  0  0  0  0  0  0
   17.7040   13.7540   15.7220 C   0  0  0  0  0  2  0  0  0  0  0  0
   16.5680   14.6670   15.3940 C   0  0  0  0  0  0  0  0  0  0  0  0
   16.2950   15.3790   14.2330 C   0  0  0  0  0  0  0  0  0  0  0  0
   15.1260   16.0470   14.4940 N   0  0  0  0  0  0  0  0  0  0  0  0
   14.6270   15.8330   15.7170 N   0  0  0  0  0  0  0  0  0  0  0  0
   15.5020   14.9920   16.2610 C   0  0  0  0  0  3  0  0  0  0  0  0
   14.6290   16.6740   13.8720 H   0  0  0  0  0  0  0  0  0  0  0  0
   16.9790   15.4860   12.9480 C   0  0  0  0  0  0  0  0  0  0  0  0
   18.2820   15.7430   10.4580 C   0  0  0  0  0  0  0  0  0  0  0  0
   16.9080   15.9510   10.5540 C   0  0  0  0  0  3  0  0  0  0  0  0
   18.9990   15.3970   11.6050 C   0  0  0  0  0  3  0  0  0  0  0  0
   16.2630   15.8250   11.7910 C   0  0  0  0  0  3  0  0  0  0  0  0
   18.3530   15.2710   12.8400 C   0  0  0  0  0  3  0  0  0  0  0  0
   19.0290   15.8340    9.3130 O   0  0  0  0  0  0  0  0  0  0  0  0
   20.4310   16.0150    9.4820 C   0  0  0  0  0  1  0  0  0  0  0  0
   18.6210   10.1450   18.3750 C   0  0  0  0  0  0  0  0  0  0  0  0
   18.6140    8.9390   18.1420 O   0  0  0  0  0  0  0  0  0  0  0  0
   18.5860   10.5350   19.7960 C   0  0  0  0  0  0  0  0  0  0  0  0
   17.3820   11.0450   20.2950 C   0  0  0  0  0  3  0  0  0  0  0  0
   19.6830   10.3890   20.6420 C   0  0  0  0  0  0  0  0  0  0  0  0
   17.2860   11.4340   21.6350 C   0  0  0  0  0  3  0  0  0  0  0  0
   19.5910   10.8130   21.9720 C   0  0  0  0  0  3  0  0  0  0  0  0
   18.3920   11.3270   22.4790 C   0  0  0  0  0  0  0  0  0  0  0  0
   20.8580    9.8750   20.1600 O   0  0  0  0  0  0  0  0  0  0  0  0
   21.7970   10.9130   19.8560 C   0  0  0  0  0  1  0  0  0  0  0  0
   18.4190   11.6800   23.8010 O   0  0  0  0  0  0  0  0  0  0  0  0
   17.2310   12.2430   24.3440 C   0  0  0  0  0  1  0  0  0  0  0  0
  1  7  1  0
  6  1  1  0
  2  3  1  0
  2  1  1  0
  4  3  1  6
  5  4  1  6
  5 22  1  0
  5  6  1  0
  8  7  1  0
  8 12  1  0
  9 10  1  0
  9  8  2  0
 10 11  1  0
 11 12  2  0
 13 10  1  0
 14  9  1  0
 15 16  2  0
 15 17  1  0
 16 18  1  0
 17 19  2  0
 18 14  2  0
 19 14  1  0
 20 21  1  0
 20 15  1  0
 22 24  1  0
 23 22  2  0
 24 25  2  0
 24 26  1  0
 25 27  1  0
 26 28  2  0
 27 29  2  0
 28 29  1  0
 29 32  1  0
 30 26  1  0
 31 30  1  0
 32 33  1  0
M  END
>  <vina_score>  (3) 
-6.7809999999999997

>  <pose_id>  (3) 
3

$$$$

     RDKit          3D

 33 36  0  0  1  0  0  0  0  0999 V2000
   18.0440   14.1820   14.9220 N   0  0  0  0  0  0  0  0  0  0  0  0
   17.1290   15.0270   15.7010 C   0  0  0  0  0  2  0  0  0  0  0  0
   15.8580   14.3000   16.1340 C   0  0  0  0  0  2  0  0  0  0  0  0
   16.1770   13.0080   16.8780 C   0  0  0  0  0  2  0  0  0  0  0  0
   17.1940   12.1200   16.1350 C   0  0  0  0  0  3  0  0  0  0  0  0
   18.3970   12.9720   15.6940 C   0  0  0  0  0  2  0  0  0  0  0  0
   17.5020   13.9110   13.5760 C   0  0  0  0  0  2  0  0  0  0  0  0
   18.0780   14.8250   12.5430 C   0  0  0  0  0  0  0  0  0  0  0  0
   19.3820   14.9490   12.0800 C   0  0  0  0  0  0  0  0  0  0  0  0
   19.3300   15.9410   11.1360 N   0  0  0  0  0  0  0  0  0  0  0  0
   18.1140   16.4690   10.9530 N   0  0  0  0  0  0  0  0  0  0  0  0
   17.3540   15.7870   11.8050 C   0  0  0  0  0  3  0  0  0  0  0  0
   20.1020   16.3080   10.5910 H   0  0  0  0  0  0  0  0  0  0  0  0
   20.6230   14.2530   12.4060 C   0  0  0  0  0  0  0  0  0  0  0  0
   23.0120   12.8720   12.9970 C   0  0  0  0  0  0  0  0  0  0  0  0
   21.7930   12.1970   13.0030 C   0  0  0  0  0  3  0  0  0  0  0  0
   23.0310   14.2370   12.7050 C   0  0  0  0  0  3  0  0  0  0  0  0
   20.6090   12.8840   12.7080 C   0  0  0  0  0  3  0  0  0  0  0  0
   21.8470   14.9210   12.4100 C   0  0  0  0  0  3  0  0  0  0  0  0
   24.2360   12.3190   13.2670 O   0  0  0  0  0  0  0  0  0  0  0  0
   24.6770   12.3840   14.6200 C   0  0  0  0  0  1  0  0  0  0  0  0
   17.5480   10.9470   17.0560 C   0  0  0  0  0  0  0  0  0  0  0  0
   17.6690    9.7980   16.6370 O   0  0  0  0  0  0  0  0  0  0  0  0
   17.7700   11.1420   18.5000 C   0  0  0  0  0  0  0  0  0  0  0  0
   18.9710   11.7460   18.8910 C   0  0  0  0  0  3  0  0  0  0  0  0
   16.8300   10.7780   19.4610 C   0  0  0  0  0  0  0  0  0  0  0  0
   19.2420   11.9580   20.2470 C   0  0  0  0  0  3  0  0  0  0  0  0
   17.1220   10.9610   20.8170 C   0  0  0  0  0  3  0  0  0  0  0  0
   18.3210   11.5590   21.2170 C   0  0  0  0  0  0  0  0  0  0  0  0
   15.6460   10.2020   19.0790 O   0  0  0  0  0  0  0  0  0  0  0  0
   14.5240   10.9820   19.5060 C   0  0  0  0  0  1  0  0  0  0  0  0
   18.4770   11.7090   22.5680 O   0  0  0  0  0  0  0  0  0  0  0  0
   17.2920   11.7990   23.3500 C   0  0  0  0  0  1  0  0  0  0  0  0
  1  6  1  0
  1  2  1  0
  2  3  1  0
  4  3  1  0
  5  4  1  0
  5 22  1  0
  5  6  1  6
  7  1  1  0
  8  7  1  0
  9 14  1  0
  9  8  2  0
 10  9  1  0
 11 10  1  0
 11 12  2  0
 12  8  1  0
 13 10  1  0
 14 19  2  0
 14 18  1  0
 15 16  1  0
 15 20  1  0
 17 15  2  0
 18 16  2  0
 19 17  1  0
 20 21  1  0
 22 24  1  0
 23 22  2  0
 24 25  2  0
 24 26  1  0
 25 27  1  0
 26 28  2  0
 27 29  2  0
 28 29  1  0
 29 32  1  0
 30 26  1  0
 30 31  1  0
 32 33  1  0
M  END
>  <vina_score>  (4) 
-6.7430000000000003

>  <pose_id>  (4) 
4

$$$$

     RDKit          3D

 33 36  0  0  1  0  0  0  0  0999 V2000
   21.9210    9.5980   16.0830 N   0  0  0  0  0  0  0  0  0  0  0  0
   20.9480    9.5730   17.1830 C   0  0  0  0  0  2  0  0  0  0  0  0
   20.1470   10.8660   17.3100 C   0  0  0  0  0  2  0  0  0  0  0  0
   19.4740   11.2400   15.9930 C   0  0  0  0  0  2  0  0  0  0  0  0
   20.4410   11.2080   14.7930 C   0  0  0  0  0  3  0  0  0  0  0  0
   21.2350    9.8900   14.8070 C   0  0  0  0  0  2  0  0  0  0  0  0
   23.0480   10.5000   16.3910 C   0  0  0  0  0  2  0  0  0  0  0  0
   24.2940   10.1130   15.6610 C   0  0  0  0  0  0  0  0  0  0  0  0
   24.7920   10.5510   14.4410 C   0  0  0  0  0  0  0  0  0  0  0  0
   25.9630    9.8600   14.2680 N   0  0  0  0  0  0  0  0  0  0  0  0
   26.2610    9.0160   15.2630 N   0  0  0  0  0  0  0  0  0  0  0  0
   25.2480    9.1740   16.1100 C   0  0  0  0  0  3  0  0  0  0  0  0
   26.5970    9.9190   13.4790 H   0  0  0  0  0  0  0  0  0  0  0  0
   24.3120   11.5220   13.4610 C   0  0  0  0  0  0  0  0  0  0  0  0
   23.3430   13.3650   11.5570 C   0  0  0  0  0  0  0  0  0  0  0  0
   23.6030   12.0470   11.1870 C   0  0  0  0  0  3  0  0  0  0  0  0
   23.5770   13.7590   12.8760 C   0  0  0  0  0  3  0  0  0  0  0  0
   24.0820   11.1330   12.1340 C   0  0  0  0  0  3  0  0  0  0  0  0
   24.0560   12.8450   13.8210 C   0  0  0  0  0  3  0  0  0  0  0  0
   22.8750   14.3520   10.7310 O   0  0  0  0  0  0  0  0  0  0  0  0
   22.5460   15.5930   11.3460 C   0  0  0  0  0  1  0  0  0  0  0  0
   19.6140   11.4390   13.5230 C   0  0  0  0  0  0  0  0  0  0  0  0
   19.4540   10.5620   12.6770 O   0  0  0  0  0  0  0  0  0  0  0  0
   18.9570   12.7310   13.2570 C   0  0  0  0  0  0  0  0  0  0  0  0
   19.7490   13.7620   12.7400 C   0  0  0  0  0  3  0  0  0  0  0  0
   17.5970   12.9410   13.4740 C   0  0  0  0  0  0  0  0  0  0  0  0
   19.1840   15.0130   12.4670 C   0  0  0  0  0  3  0  0  0  0  0  0
   17.0460   14.2040   13.2330 C   0  0  0  0  0  3  0  0  0  0  0  0
   17.8310   15.2420   12.7190 C   0  0  0  0  0  0  0  0  0  0  0  0
   16.8150   11.9280   13.9650 O   0  0  0  0  0  0  0  0  0  0  0  0
   15.9140   12.4030   14.9710 C   0  0  0  0  0  1  0  0  0  0  0  0
   17.1710   16.4200   12.4990 O   0  0  0  0  0  0  0  0  0  0  0  0
   16.3040   16.4740   11.3720 C   0  0  0  0  0  1  0  0  0  0  0  0
  1  7  1  0
  1  2  1  0
  2  3  1  0
  4  3  1  0
  5 22  1  0
  5  6  1  0
  5  4  1  1
  6  1  1  0
  8 12  1  0
  8  7  1  0
  9  8  2  0
 10  9  1  0
 10 11  1  0
 11 12  2  0
 13 10  1  0
 14 19  1  0
 14  9  1  0
 15 17  1  0
 16 15  2  0
 16 18  1  0
 17 19  2  0
 18 14  2  0
 20 21  1  0
 20 15  1  0
 23 22  2  0
 24 26  1  0
 24 22  1  0
 25 24  2  0
 26 30  1  0
 27 29  2  0
 27 25  1  0
 28 26  2  0
 29 28  1  0
 30 31  1  0
 32 29  1  0
 33 32  1  0
M  END
>  <vina_score>  (5) 
-6.6200000000000001

>  <pose_id>  (5) 
5

$$$$
