
     RDKit          3D

 20 21  0  0  0  0  0  0  0  0999 V2000
   19.0050   15.4760   10.9420 C   0  0  0  0  0  0  0  0  0  0  0  0
   19.7000   16.0580    9.9470 C   0  0  0  0  0  3  0  0  0  0  0  0
   21.1360   15.9780    9.8320 C   0  0  0  0  0  3  0  0  0  0  0  0
   21.8750   15.3080   10.7250 C   0  0  0  0  0  3  0  0  0  0  0  0
   21.2550   14.6310   11.8470 C   0  0  0  0  0  0  0  0  0  0  0  0
   21.9260   13.9390   12.7880 C   0  0  0  0  0  3  0  0  0  0  0  0
   19.7540   14.6950   11.9880 C   0  0  0  0  0  0  0  0  0  0  0  0
   19.1500   14.1420   12.9050 O   0  0  0  0  0  0  0  0  0  0  0  0
   17.5080   15.5080   11.1360 C   0  0  0  0  0  2  0  0  0  0  0  0
   16.7300   16.1240   10.0020 C   0  0  0  0  0  3  0  0  0  0  0  0
   15.4510   16.5140   10.0860 C   0  0  0  0  0  2  0  0  0  0  0  0
   23.2800   13.7180   12.9080 N   0  0  0  0  0  0  0  0  0  0  0  0
   23.8830   14.4310   12.5170 H   0  0  0  0  0  0  0  0  0  0  0  0
   23.9550   12.6330   13.4950 C   0  0  0  0  0  0  0  0  0  0  0  0
   24.4880   12.7960   14.7850 C   0  0  0  0  0  3  0  0  0  0  0  0
   24.1290   11.3900   12.8700 C   0  0  0  0  0  3  0  0  0  0  0  0
   25.1700   11.7570   15.4290 C   0  0  0  0  0  3  0  0  0  0  0  0
   24.8100   10.3470   13.5090 C   0  0  0  0  0  3  0  0  0  0  0  0
   25.3280   10.5360   14.7860 C   0  0  0  0  0  0  0  0  0  0  0  0
   26.2470    9.1280   15.6480 Br  0  0  0  0  0  0  0  0  0  0  0  0
  1  9  1  0
  1  7  1  0
  2  1  2  0
  3  2  1  0
  3  4  2  0
  4  5  1  0
  5  7  1  0
  5  6  2  0
  6 12  1  0
  7  8  2  0
 10 11  2  0
 10  9  1  0
 12 14  1  0
 13 12  1  0
 14 15  1  0
 15 17  2  0
 16 14  2  0
 16 18  1  0
 18 19  2  0
 19 17  1  0
 19 20  1  0
M  RAD  8   2   2   3   2   4   2   6   2   9   3  10   2  11   3  15   2
M  RAD  3  16   2  17   2  18   2
M  END
>  <vina_score>  (1) 
-6.5960000000000001

>  <pose_id>  (1) 
1

$$$$

     RDKit          3D

 20 21  0  0  0  0  0  0  0  0999 V2000
   15.6920   14.3570   13.4950 C   0  0  0  0  0  0  0  0  0  0  0  0
   15.2900   15.2710   14.3970 C   0  0  0  0  0  3  0  0  0  0  0  0
   15.8490   15.3740   15.7240 C   0  0  0  0  0  3  0  0  0  0  0  0
   16.8190   14.5520   16.1420 C   0  0  0  0  0  3  0  0  0  0  0  0
   17.3490   13.5210   15.2700 C   0  0  0  0  0  0  0  0  0  0  0  0
   18.3210   12.6550   15.6150 C   0  0  0  0  0  3  0  0  0  0  0  0
   16.7850   13.3950   13.8760 C   0  0  0  0  0  0  0  0  0  0  0  0
   17.1850   12.5540   13.0740 O   0  0  0  0  0  0  0  0  0  0  0  0
   15.1650   14.1810   12.0920 C   0  0  0  0  0  2  0  0  0  0  0  0
   15.4360   15.3330   11.1580 C   0  0  0  0  0  3  0  0  0  0  0  0
   16.6530   15.6860   10.7250 C   0  0  0  0  0  2  0  0  0  0  0  0
   19.0080   12.5420   16.8030 N   0  0  0  0  0  0  0  0  0  0  0  0
   19.9910   12.7850   16.7740 H   0  0  0  0  0  0  0  0  0  0  0  0
   18.5410   12.1270   18.0640 C   0  0  0  0  0  0  0  0  0  0  0  0
   17.2200   11.6590   18.1660 C   0  0  0  0  0  3  0  0  0  0  0  0
   19.3170   12.1500   19.2300 C   0  0  0  0  0  3  0  0  0  0  0  0
   16.6920   11.2280   19.3890 C   0  0  0  0  0  3  0  0  0  0  0  0
   18.7950   11.7210   20.4570 C   0  0  0  0  0  3  0  0  0  0  0  0
   17.4840   11.2630   20.5300 C   0  0  0  0  0  0  0  0  0  0  0  0
   16.7780   10.6840   22.1840 Br  0  0  0  0  0  0  0  0  0  0  0  0
  1  7  1  0
  1  2  2  0
  2  3  1  0
  3  4  2  0
  5  6  2  0
  5  4  1  0
  6 12  1  0
  7  5  1  0
  8  7  2  0
  9  1  1  0
 10  9  1  0
 11 10  2  0
 12 14  1  0
 13 12  1  0
 14 15  1  0
 14 16  2  0
 15 17  2  0
 16 18  1  0
 17 19  1  0
 18 19  2  0
 19 20  1  0
M  RAD  8   2   2   3   2   4   2   6   2   9   3  10   2  11   3  15   2
M  RAD  3  16   2  17   2  18   2
M  END
>  <vina_score>  (2) 
-6.5049999999999999

>  <pose_id>  (2) 
2

$$$$

     RDKit          3D

 20 21  0  0  0  0  0  0  0  0999 V2000
   17.7210   16.0340   10.9710 C   0  0  0  0  0  0  0  0  0  0  0  0
   18.1770   16.3960    9.7570 C   0  0  0  0  0  3  0  0  0  0  0  0
   19.5340   16.1700    9.3210 C   0  0  0  0  0  3  0  0  0  0  0  0
   20.4350   15.5760   10.1130 C   0  0  0  0  0  3  0  0  0  0  0  0
   20.0780   15.1320   11.4460 C   0  0  0  0  0  0  0  0  0  0  0  0
   20.9240   14.5290   12.3030 C   0  0  0  0  0  3  0  0  0  0  0  0
   18.6640   15.3520   11.9250 C   0  0  0  0  0  0  0  0  0  0  0  0
   18.2790   14.9980   13.0370 O   0  0  0  0  0  0  0  0  0  0  0  0
   16.3230   16.2300   11.5050 C   0  0  0  0  0  2  0  0  0  0  0  0
   15.3380   15.1530   11.1270 C   0  0  0  0  0  3  0  0  0  0  0  0
   14.8760   14.2210   11.9710 C   0  0  0  0  0  2  0  0  0  0  0  0
   22.2530   14.2070   12.1350 N   0  0  0  0  0  0  0  0  0  0  0  0
   22.7450   14.7140   11.4100 H   0  0  0  0  0  0  0  0  0  0  0  0
   23.0330   13.2620   12.8260 C   0  0  0  0  0  0  0  0  0  0  0  0
   23.7110   12.2820   12.0810 C   0  0  0  0  0  3  0  0  0  0  0  0
   23.1800   13.2390   14.2190 C   0  0  0  0  0  3  0  0  0  0  0  0
   24.5060   11.3130   12.7030 C   0  0  0  0  0  3  0  0  0  0  0  0
   23.9740   12.2720   14.8490 C   0  0  0  0  0  3  0  0  0  0  0  0
   24.6330   11.3130   14.0870 C   0  0  0  0  0  0  0  0  0  0  0  0
   25.7040   10.0090   14.9350 Br  0  0  0  0  0  0  0  0  0  0  0  0
  1  9  1  0
  1  7  1  0
  2  1  2  0
  3  2  1  0
  3  4  2  0
  4  5  1  0
  5  7  1  0
  5  6  2  0
  7  8  2  0
 10  9  1  0
 10 11  2  0
 12  6  1  0
 12 14  1  0
 13 12  1  0
 14 16  2  0
 15 17  2  0
 15 14  1  0
 16 18  1  0
 17 19  1  0
 19 18  2  0
 19 20  1  0
M  RAD  8   2   2   3   2   4   2   6   2   9   3  10   2  11   3  15   2
M  RAD  3  16   2  17   2  18   2
M  END
>  <vina_score>  (3) 
-6.484

>  <pose_id>  (3) 
3

$$$$

     RDKit          3D

 20 21  0  0  0  0  0  0  0  0999 V2000
   17.6190   11.3110   20.8720 C   0  0  0  0  0  0  0  0  0  0  0  0
   18.9110   11.6810   20.9350 C   0  0  0  0  0  3  0  0  0  0  0  0
   19.6900   12.0390   19.7740 C   0  0  0  0  0  3  0  0  0  0  0  0
   19.1630   12.0240   18.5440 C   0  0  0  0  0  3  0  0  0  0  0  0
   17.7780   11.6480   18.3310 C   0  0  0  0  0  0  0  0  0  0  0  0
   17.1740   11.6070   17.1280 C   0  0  0  0  0  3  0  0  0  0  0  0
   16.9400   11.2740   19.5290 C   0  0  0  0  0  0  0  0  0  0  0  0
   15.7580   10.9520   19.4350 O   0  0  0  0  0  0  0  0  0  0  0  0
   16.7330   10.9240   22.0320 C   0  0  0  0  0  2  0  0  0  0  0  0
   17.2920   11.2400   23.3960 C   0  0  0  0  0  3  0  0  0  0  0  0
   17.2910   12.4590   23.9500 C   0  0  0  0  0  2  0  0  0  0  0  0
   17.6890   11.8930   15.8830 N   0  0  0  0  0  0  0  0  0  0  0  0
   18.6060   11.5130   15.6830 H   0  0  0  0  0  0  0  0  0  0  0  0
   17.1250   12.6490   14.8400 C   0  0  0  0  0  0  0  0  0  0  0  0
   17.9740   13.4600   14.0670 C   0  0  0  0  0  3  0  0  0  0  0  0
   15.7610   12.6410   14.5180 C   0  0  0  0  0  3  0  0  0  0  0  0
   17.4810   14.2360   13.0120 C   0  0  0  0  0  3  0  0  0  0  0  0
   15.2610   13.4150   13.4640 C   0  0  0  0  0  3  0  0  0  0  0  0
   16.1230   14.2100   12.7160 C   0  0  0  0  0  0  0  0  0  0  0  0
   15.4490   15.2540   11.2940 Br  0  0  0  0  0  0  0  0  0  0  0  0
  1  2  2  0
  1  9  1  0
  3  2  1  0
  4  3  2  0
  5  4  1  0
  5  7  1  0
  6  5  2  0
  7  1  1  0
  8  7  2  0
  9 10  1  0
 10 11  2  0
 12  6  1  0
 13 12  1  0
 14 12  1  0
 15 14  1  0
 16 14  2  0
 17 15  2  0
 18 16  1  0
 19 17  1  0
 19 18  2  0
 20 19  1  0
M  RAD  8   2   2   3   2   4   2   6   2   9   3  10   2  11   3  15   2
M  RAD  3  16   2  17   2  18   2
M  END
>  <vina_score>  (4) 
-6.444

>  <pose_id>  (4) 
4

$$$$
