
     RDKit          3D

 23 24  0  0  0  0  0  0  0  0999 V2000
   22.9400   10.1290   18.3680 C   0  0  0  0  0  2  0  0  0  0  0  0
   22.0760    9.6790   19.4430 N   0  0  0  0  0  0  0  0  0  0  0  0
   20.2320    9.7960   20.7540 N   0  0  0  0  0  0  0  0  0  0  0  0
   20.8800   10.3430   19.6680 C   0  0  0  0  0  0  0  0  0  0  0  0
   20.5010   11.2690   18.9640 O   0  0  0  0  0  0  0  0  0  0  0  0
   20.5670    8.8830   21.0130 H   0  0  0  0  0  0  0  0  0  0  0  0
   22.5420    9.3930   20.2920 H   0  0  0  0  0  0  0  0  0  0  0  0
   19.0430   10.2430   21.3730 C   0  0  0  0  0  0  0  0  0  0  0  0
   17.8110    9.6720   20.9810 C   0  0  0  0  0  0  0  0  0  0  0  0
   16.6230   10.1010   21.5990 C   0  0  0  0  0  3  0  0  0  0  0  0
   16.6470   11.0760   22.5940 C   0  0  0  0  0  3  0  0  0  0  0  0
   19.0480   11.2150   22.3800 C   0  0  0  0  0  3  0  0  0  0  0  0
   17.8590   11.6310   22.9850 C   0  0  0  0  0  3  0  0  0  0  0  0
   17.7170    8.6160   19.9120 C   0  0  0  0  0  1  0  0  0  0  0  0
   23.1570    9.0300   17.3340 C   0  0  0  0  0  2  0  0  0  0  0  0
   24.3890    9.3290   16.4730 C   0  0  0  0  0  2  0  0  0  0  0  0
   24.1290   10.3570   15.4590 N   0  0  0  0  0  0  0  0  0  0  0  0
   25.0890   11.4660   15.5460 C   0  0  0  0  0  2  0  0  0  0  0  0
   24.0870    9.8180   14.0830 C   0  0  0  0  0  2  0  0  0  0  0  0
   24.7770   12.6180   14.5510 C   0  0  0  0  0  2  0  0  0  0  0  0
   24.4510   10.8280   12.9580 C   0  0  0  0  0  2  0  0  0  0  0  0
   24.0960   12.2060   13.3090 N   0  0  0  0  0  0  0  0  0  0  0  0
   24.3550   13.1370   12.2190 C   0  0  0  0  0  1  0  0  0  0  0  0
  1  2  1  0
  2  4  1  0
  2  7  1  0
  3  6  1  0
  3  8  1  0
  4  3  1  0
  5  4  2  0
  8 12  2  0
  9  8  1  0
  9 10  2  0
 10 11  1  0
 11 13  2  0
 12 13  1  0
 14  9  1  0
 15  1  1  0
 16 15  1  0
 17 18  1  0
 17 16  1  0
 19 17  1  0
 20 18  1  0
 21 22  1  0
 21 19  1  0
 22 20  1  0
 23 22  1  0
M  RAD  8   1   3  10   2  11   2  12   2  13   2  14   2  15   3  16   3
M  RAD  5  18   3  19   3  20   3  21   3  23   2
M  END
>  <vina_score>  (1) 
-6.6760000000000002

>  <pose_id>  (1) 
1

$$$$

     RDKit          3D

 23 24  0  0  0  0  0  0  0  0999 V2000
   19.9740   11.5220   15.4190 C   0  0  0  0  0  2  0  0  0  0  0  0
   19.9240   12.8570   14.8510 N   0  0  0  0  0  0  0  0  0  0  0  0
   19.3790   14.3680   13.2540 N   0  0  0  0  0  0  0  0  0  0  0  0
   19.2770   13.0490   13.6410 C   0  0  0  0  0  0  0  0  0  0  0  0
   18.7050   12.1430   13.0520 O   0  0  0  0  0  0  0  0  0  0  0  0
   19.6390   14.9940   13.9980 H   0  0  0  0  0  0  0  0  0  0  0  0
   20.7630   13.4090   14.9500 H   0  0  0  0  0  0  0  0  0  0  0  0
   18.9490   14.9540   12.0430 C   0  0  0  0  0  0  0  0  0  0  0  0
   19.9140   15.3090   11.0740 C   0  0  0  0  0  0  0  0  0  0  0  0
   19.4950   15.8830    9.8590 C   0  0  0  0  0  3  0  0  0  0  0  0
   18.1430   16.0990    9.6010 C   0  0  0  0  0  3  0  0  0  0  0  0
   17.5950   15.1720   11.7610 C   0  0  0  0  0  3  0  0  0  0  0  0
   17.1940   15.7430   10.5500 C   0  0  0  0  0  3  0  0  0  0  0  0
   21.3880   15.1020   11.2920 C   0  0  0  0  0  1  0  0  0  0  0  0
   21.0580   10.6780   14.7590 C   0  0  0  0  0  2  0  0  0  0  0  0
   22.4520   11.1850   15.1460 C   0  0  0  0  0  2  0  0  0  0  0  0
   23.2800   11.4970   13.9750 N   0  0  0  0  0  0  0  0  0  0  0  0
   22.5050   11.4380   12.7270 C   0  0  0  0  0  2  0  0  0  0  0  0
   23.9790   12.7950   14.0860 C   0  0  0  0  0  2  0  0  0  0  0  0
   23.3760   11.6650   11.4610 C   0  0  0  0  0  2  0  0  0  0  0  0
   24.3290   13.4830   12.7380 C   0  0  0  0  0  2  0  0  0  0  0  0
   24.5630   12.5180   11.6610 N   0  0  0  0  0  0  0  0  0  0  0  0
   24.9780   13.1610   10.4220 C   0  0  0  0  0  1  0  0  0  0  0  0
  2  7  1  0
  2  1  1  0
  3  4  1  0
  3  6  1  0
  4  2  1  0
  5  4  2  0
  8  3  1  0
  9 14  1  0
  9  8  1  0
 10  9  2  0
 11 10  1  0
 11 13  2  0
 12  8  2  0
 13 12  1  0
 15 16  1  0
 15  1  1  0
 17 19  1  0
 17 16  1  0
 18 17  1  0
 20 22  1  0
 20 18  1  0
 21 19  1  0
 22 21  1  0
 23 22  1  0
M  RAD  8   1   3  10   2  11   2  12   2  13   2  14   2  15   3  16   3
M  RAD  5  18   3  19   3  20   3  21   3  23   2
M  END
>  <vina_score>  (2) 
-6.5369999999999999

>  <pose_id>  (2) 
2

$$$$

     RDKit          3D

 23 24  0  0  0  0  0  0  0  0999 V2000
   17.6200   11.8210   15.7890 C   0  0  0  0  0  2  0  0  0  0  0  0
   17.6660   13.1270   15.1580 N   0  0  0  0  0  0  0  0  0  0  0  0
   17.8830   14.5220   13.3870 N   0  0  0  0  0  0  0  0  0  0  0  0
   17.8170   13.2040   13.7820 C   0  0  0  0  0  0  0  0  0  0  0  0
   17.8660   12.2100   13.0710 O   0  0  0  0  0  0  0  0  0  0  0  0
   17.5460   15.1740   14.0760 H   0  0  0  0  0  0  0  0  0  0  0  0
   18.1770   13.8400   15.6580 H   0  0  0  0  0  0  0  0  0  0  0  0
   18.1350   15.0300   12.0920 C   0  0  0  0  0  0  0  0  0  0  0  0
   17.0400   15.3830   11.2710 C   0  0  0  0  0  0  0  0  0  0  0  0
   17.2790   15.9010    9.9850 C   0  0  0  0  0  3  0  0  0  0  0  0
   18.5800   16.0740    9.5160 C   0  0  0  0  0  3  0  0  0  0  0  0
   19.4340   15.2190   11.6060 C   0  0  0  0  0  3  0  0  0  0  0  0
   19.6560   15.7340   10.3270 C   0  0  0  0  0  3  0  0  0  0  0  0
   15.6120   15.2190   11.7190 C   0  0  0  0  0  1  0  0  0  0  0  0
   16.9990   11.8980   17.1790 C   0  0  0  0  0  2  0  0  0  0  0  0
   17.7170   10.9540   18.1490 C   0  0  0  0  0  2  0  0  0  0  0  0
   17.5770   11.3750   19.5480 N   0  0  0  0  0  0  0  0  0  0  0  0
   16.8170   10.3960   20.3380 C   0  0  0  0  0  2  0  0  0  0  0  0
   18.8710   11.6690   20.1990 C   0  0  0  0  0  2  0  0  0  0  0  0
   16.5640   10.8620   21.7990 C   0  0  0  0  0  2  0  0  0  0  0  0
   18.8970   11.4950   21.7440 C   0  0  0  0  0  2  0  0  0  0  0  0
   17.5930   11.7590   22.3570 N   0  0  0  0  0  0  0  0  0  0  0  0
   17.6410   11.6840   23.8120 C   0  0  0  0  0  1  0  0  0  0  0  0
  1 15  1  0
  2  7  1  0
  2  1  1  0
  3  4  1  0
  3  6  1  0
  4  2  1  0
  5  4  2  0
  8  3  1  0
  9 14  1  0
  9  8  1  0
 10  9  2  0
 11 10  1  0
 11 13  2  0
 12  8  2  0
 13 12  1  0
 15 16  1  0
 16 17  1  0
 17 19  1  0
 17 18  1  0
 18 20  1  0
 19 21  1  0
 20 22  1  0
 21 22  1  0
 22 23  1  0
M  RAD  8   1   3  10   2  11   2  12   2  13   2  14   2  15   3  16   3
M  RAD  5  18   3  19   3  20   3  21   3  23   2
M  END
>  <vina_score>  (3) 
-6.4139999999999997

>  <pose_id>  (3) 
3

$$$$

     RDKit          3D

 23 24  0  0  0  0  0  0  0  0999 V2000
   23.2720   10.0160   17.1870 C   0  0  0  0  0  2  0  0  0  0  0  0
   23.5330   11.2510   16.4710 N   0  0  0  0  0  0  0  0  0  0  0  0
   23.5780   12.5590   14.6220 N   0  0  0  0  0  0  0  0  0  0  0  0
   23.2130   11.3290   15.1250 C   0  0  0  0  0  0  0  0  0  0  0  0
   22.6740   10.4090   14.5250 O   0  0  0  0  0  0  0  0  0  0  0  0
   23.7420   13.2570   15.3280 H   0  0  0  0  0  0  0  0  0  0  0  0
   24.3940   11.7230   16.7070 H   0  0  0  0  0  0  0  0  0  0  0  0
   23.5190   13.0020   13.2820 C   0  0  0  0  0  0  0  0  0  0  0  0
   22.5260   13.9370   12.9130 C   0  0  0  0  0  0  0  0  0  0  0  0
   22.4670   14.3940   11.5840 C   0  0  0  0  0  3  0  0  0  0  0  0
   23.3770   13.9410   10.6320 C   0  0  0  0  0  3  0  0  0  0  0  0
   24.4300   12.5640   12.3130 C   0  0  0  0  0  3  0  0  0  0  0  0
   24.3580   13.0270   10.9960 C   0  0  0  0  0  3  0  0  0  0  0  0
   21.5140   14.4650   13.8940 C   0  0  0  0  0  1  0  0  0  0  0  0
   22.5280   10.2770   18.4920 C   0  0  0  0  0  2  0  0  0  0  0  0
   21.0180   10.3740   18.2460 C   0  0  0  0  0  2  0  0  0  0  0  0
   20.3110   11.0260   19.3540 N   0  0  0  0  0  0  0  0  0  0  0  0
   18.8780   10.6960   19.3570 C   0  0  0  0  0  2  0  0  0  0  0  0
   20.9080   10.7360   20.6750 C   0  0  0  0  0  2  0  0  0  0  0  0
   18.0840   11.4520   20.4580 C   0  0  0  0  0  2  0  0  0  0  0  0
   19.9330   10.8210   21.8830 C   0  0  0  0  0  2  0  0  0  0  0  0
   18.8580   11.7930   21.6660 N   0  0  0  0  0  0  0  0  0  0  0  0
   17.9990   11.9360   22.8340 C   0  0  0  0  0  1  0  0  0  0  0  0
  1 15  1  0
  2  7  1  0
  2  1  1  0
  3  4  1  0
  3  6  1  0
  4  2  1  0
  5  4  2  0
  8  3  1  0
  9  8  1  0
  9 14  1  0
 10  9  2  0
 11 13  2  0
 11 10  1  0
 12  8  2  0
 13 12  1  0
 16 15  1  0
 16 17  1  0
 17 18  1  0
 17 19  1  0
 18 20  1  0
 19 21  1  0
 20 22  1  0
 22 21  1  0
 22 23  1  0
M  RAD  8   1   3  10   2  11   2  12   2  13   2  14   2  15   3  16   3
M  RAD  5  18   3  19   3  20   3  21   3  23   2
M  END
>  <vina_score>  (4) 
-6.3499999999999996

>  <pose_id>  (4) 
4

$$$$

     RDKit          3D

 23 24  0  0  0  0  0  0  0  0999 V2000
   21.8010   12.5470   14.4870 C   0  0  0  0  0  2  0  0  0  0  0  0
   21.2390   13.7810   13.9710 N   0  0  0  0  0  0  0  0  0  0  0  0
   19.8710   14.9880   12.6290 N   0  0  0  0  0  0  0  0  0  0  0  0
   20.2350   13.7170   13.0180 C   0  0  0  0  0  0  0  0  0  0  0  0
   19.7690   12.6570   12.6250 O   0  0  0  0  0  0  0  0  0  0  0  0
   20.1680   15.7120   13.2620 H   0  0  0  0  0  0  0  0  0  0  0  0
   21.8960   14.5320   13.8130 H   0  0  0  0  0  0  0  0  0  0  0  0
   18.9630   15.3590   11.6110 C   0  0  0  0  0  0  0  0  0  0  0  0
   19.4700   15.7880   10.3640 C   0  0  0  0  0  0  0  0  0  0  0  0
   18.5750   16.1480    9.3410 C   0  0  0  0  0  3  0  0  0  0  0  0
   17.1980   16.0810    9.5410 C   0  0  0  0  0  3  0  0  0  0  0  0
   17.5760   15.2910   11.7900 C   0  0  0  0  0  3  0  0  0  0  0  0
   16.6990   15.6520   10.7640 C   0  0  0  0  0  3  0  0  0  0  0  0
   20.9460   15.8830   10.0850 C   0  0  0  0  0  1  0  0  0  0  0  0
   23.2180   12.3240   13.9720 C   0  0  0  0  0  2  0  0  0  0  0  0
   23.3320   10.9710   13.2610 C   0  0  0  0  0  2  0  0  0  0  0  0
   24.2640   10.0600   13.9340 N   0  0  0  0  0  0  0  0  0  0  0  0
   25.3030   10.7910   14.6740 C   0  0  0  0  0  2  0  0  0  0  0  0
   23.5900    9.0870   14.8190 C   0  0  0  0  0  2  0  0  0  0  0  0
   26.3640    9.8540   15.3140 C   0  0  0  0  0  2  0  0  0  0  0  0
   24.4470    8.5510   15.9990 C   0  0  0  0  0  2  0  0  0  0  0  0
   25.8760    8.5110   15.6790 N   0  0  0  0  0  0  0  0  0  0  0  0
   26.6670    7.9240   16.7520 C   0  0  0  0  0  1  0  0  0  0  0  0
  2  1  1  0
  3  4  1  0
  3  6  1  0
  4  2  1  0
  5  4  2  0
  7  2  1  0
  8 12  2  0
  8  3  1  0
  9  8  1  0
 10 11  1  0
 10  9  2  0
 11 13  2  0
 13 12  1  0
 14  9  1  0
 15  1  1  0
 16 17  1  0
 16 15  1  0
 17 18  1  0
 17 19  1  0
 18 20  1  0
 19 21  1  0
 20 22  1  0
 22 21  1  0
 22 23  1  0
M  RAD  8   1   3  10   2  11   2  12   2  13   2  14   2  15   3  16   3
M  RAD  5  18   3  19   3  20   3  21   3  23   2
M  END
>  <vina_score>  (5) 
-6.3140000000000001

>  <pose_id>  (5) 
5

$$$$
