
     RDKit          3D

 45 47  0  0  1  0  0  0  0  0999 V2000
   19.1170   10.6140   20.5450 C   0  0  0  0  0  3  0  0  0  0  0  0
   18.6940   11.8300   19.8900 O   0  0  0  0  0  0  0  0  0  0  0  0
   18.5030   11.5580   18.4890 C   0  0  1  0  0  0  0  0  0  0  0  0
   19.4260   10.3540   18.1780 C   0  0  0  0  0  3  0  0  0  0  0  0
   19.3380    9.5450   19.4680 C   0  0  0  0  0  3  0  0  0  0  0  0
   20.3710   10.9270   21.3740 C   0  0  0  0  0  2  0  0  0  0  0  0
   21.2550   11.8360   20.7240 O   0  0  0  0  0  0  0  0  0  0  0  0
   20.7250   12.6220   20.4730 H   0  0  0  0  0  0  0  0  0  0  0  0
   18.2140    8.6600   19.3930 O   0  0  0  0  0  0  0  0  0  0  0  0
   18.5190    7.8310   18.9760 H   0  0  0  0  0  0  0  0  0  0  0  0
   17.0110   11.2030   18.1890 C   0  0  0  0  0  2  0  0  0  0  0  0
   16.1980   11.1740   19.3740 O   0  0  0  0  0  0  0  0  0  0  0  0
   16.7340   11.5540   20.0860 H   0  0  0  0  0  0  0  0  0  0  0  0
   18.9190   12.6370   17.6610 O   0  0  0  0  0  0  0  0  0  0  0  0
   18.1750   12.8020   16.4610 C   0  0  0  0  0  3  0  0  0  0  0  0
   18.0240   14.2020   16.2010 O   0  0  0  0  0  0  0  0  0  0  0  0
   19.0350   12.1760   15.3410 C   0  0  0  0  0  3  0  0  0  0  0  0
   17.2240   14.4770   15.0350 C   0  0  0  0  0  3  0  0  0  0  0  0
   18.5650   12.6350   13.9540 C   0  0  0  0  0  3  0  0  0  0  0  0
   17.1950   13.3230   14.0100 C   0  0  0  0  0  3  0  0  0  0  0  0
   20.4170   12.5770   15.5210 O   0  0  0  0  0  0  0  0  0  0  0  0
   20.9240   11.7280   15.4500 H   0  0  0  0  0  0  0  0  0  0  0  0
   15.8090   14.8390   15.5110 C   0  0  0  0  0  2  0  0  0  0  0  0
   15.0490   15.3310   14.4140 O   0  0  0  0  0  0  0  0  0  0  0  0
   14.2920   15.8120   14.8100 H   0  0  0  0  0  0  0  0  0  0  0  0
   18.4670   11.5080   13.0680 O   0  0  0  0  0  0  0  0  0  0  0  0
   18.4520   10.7270   13.6550 H   0  0  0  0  0  0  0  0  0  0  0  0
   16.8540   13.7710   12.6900 O   0  0  0  0  0  0  0  0  0  0  0  0
   17.3830   14.5620   12.4880 H   0  0  0  0  0  0  0  0  0  0  0  0
   20.8090   10.7370   18.0490 O   0  0  0  0  0  0  0  0  0  0  0  0
   21.6610    9.7710   17.4210 C   0  0  0  0  0  3  0  0  0  0  0  0
   22.2630   10.3460   16.2560 O   0  0  0  0  0  0  0  0  0  0  0  0
   22.6920    9.3700   18.5010 C   0  0  0  0  0  3  0  0  0  0  0  0
   23.5810    9.8480   15.9380 C   0  0  0  0  0  3  0  0  0  0  0  0
   23.7040    8.3670   17.9500 C   0  0  0  0  0  3  0  0  0  0  0  0
   23.7840    8.4050   16.4180 C   0  0  0  0  0  3  0  0  0  0  0  0
   23.3890   10.5500   18.9590 O   0  0  0  0  0  0  0  0  0  0  0  0
   23.9560   10.2400   19.6990 H   0  0  0  0  0  0  0  0  0  0  0  0
   23.7990    9.9800   14.4240 C   0  0  0  0  0  2  0  0  0  0  0  0
   25.1790    9.7920   14.0940 O   0  0  0  0  0  0  0  0  0  0  0  0
   25.6680   10.5380   14.5080 H   0  0  0  0  0  0  0  0  0  0  0  0
   23.3410    7.0370   18.3490 O   0  0  0  0  0  0  0  0  0  0  0  0
   23.3400    6.5080   17.5310 H   0  0  0  0  0  0  0  0  0  0  0  0
   25.0440    7.8680   16.0160 O   0  0  0  0  0  0  0  0  0  0  0  0
   24.9310    7.5210   15.1130 H   0  0  0  0  0  0  0  0  0  0  0  0
  1  6  1  0
  1  2  1  0
  3 11  1  1
  3  2  1  0
  4 30  1  0
  4  3  1  1
  5  4  1  6
  5  9  1  0
  5  1  1  0
  7  6  1  0
  8  7  1  0
 10  9  1  0
 11 12  1  0
 12 13  1  0
 14  3  1  0
 15 14  1  0
 15 16  1  0
 17 21  1  0
 17 15  1  0
 18 23  1  0
 18 16  1  1
 19 26  1  0
 20 19  1  0
 19 17  1  6
 20 28  1  0
 20 18  1  0
 22 21  1  0
 24 25  1  0
 24 23  1  0
 26 27  1  0
 29 28  1  0
 31 30  1  0
 33 31  1  6
 31 32  1  6
 33 37  1  0
 34 39  1  0
 34 32  1  1
 36 34  1  0
 35 42  1  0
 35 33  1  1
 36 44  1  0
 35 36  1  0
 37 38  1  0
 40 39  1  0
 40 41  1  0
 43 42  1  0
 45 44  1  0
M  END
>  <vina_score>  (1) 
-6.5199999999999996

>  <pose_id>  (1) 
1

$$$$

     RDKit          3D

 45 47  0  0  1  0  0  0  0  0999 V2000
   24.8540    8.3930   15.2160 C   0  0  0  0  0  3  0  0  0  0  0  0
   24.4720    9.6120   14.5400 O   0  0  0  0  0  0  0  0  0  0  0  0
   24.4270   10.6800   15.5040 C   0  0  1  0  0  0  0  0  0  0  0  0
   24.1480    9.9920   16.8630 C   0  0  0  0  0  3  0  0  0  0  0  0
   24.9190    8.6840   16.7200 C   0  0  0  0  0  3  0  0  0  0  0  0
   23.8440    7.2990   14.8400 C   0  0  0  0  0  2  0  0  0  0  0  0
   22.5030    7.7770   14.7780 O   0  0  0  0  0  0  0  0  0  0  0  0
   22.0100    7.1710   14.1850 H   0  0  0  0  0  0  0  0  0  0  0  0
   26.2740    8.8890   17.1390 O   0  0  0  0  0  0  0  0  0  0  0  0
   26.2500    9.2880   18.0310 H   0  0  0  0  0  0  0  0  0  0  0  0
   25.7850   11.4520   15.5430 C   0  0  0  0  0  2  0  0  0  0  0  0
   26.2290   11.7270   16.8820 O   0  0  0  0  0  0  0  0  0  0  0  0
   25.4910   11.5070   17.4680 H   0  0  0  0  0  0  0  0  0  0  0  0
   23.3610   11.5900   15.2620 O   0  0  0  0  0  0  0  0  0  0  0  0
   23.4700   12.3480   14.0640 C   0  0  0  0  0  3  0  0  0  0  0  0
   23.0520   11.5320   12.9640 O   0  0  0  0  0  0  0  0  0  0  0  0
   22.4810   13.5240   14.2170 C   0  0  0  0  0  3  0  0  0  0  0  0
   23.1880   12.1910   11.6900 C   0  0  0  0  0  3  0  0  0  0  0  0
   22.1850   14.1850   12.8640 C   0  0  0  0  0  3  0  0  0  0  0  0
   23.1690   13.7320   11.7770 C   0  0  0  0  0  3  0  0  0  0  0  0
   21.2360   13.0320   14.7770 O   0  0  0  0  0  0  0  0  0  0  0  0
   21.4980   12.2040   15.2530 H   0  0  0  0  0  0  0  0  0  0  0  0
   24.4810   11.6830   11.0340 C   0  0  0  0  0  2  0  0  0  0  0  0
   25.1700   12.7720   10.4320 O   0  0  0  0  0  0  0  0  0  0  0  0
   24.7620   13.5820   10.8040 H   0  0  0  0  0  0  0  0  0  0  0  0
   22.2730   15.6140   12.9830 O   0  0  0  0  0  0  0  0  0  0  0  0
   21.3560   15.9330   12.8750 H   0  0  0  0  0  0  0  0  0  0  0  0
   22.7930   14.3460   10.5360 O   0  0  0  0  0  0  0  0  0  0  0  0
   22.2180   15.1060   10.7310 H   0  0  0  0  0  0  0  0  0  0  0  0
   22.7660    9.6180   17.0190 O   0  0  0  0  0  0  0  0  0  0  0  0
   21.9470   10.5600   17.7220 C   0  0  0  0  0  3  0  0  0  0  0  0
   20.7030   10.7260   17.0310 O   0  0  0  0  0  0  0  0  0  0  0  0
   21.7770    9.9770   19.1430 C   0  0  0  0  0  3  0  0  0  0  0  0
   19.5700   11.0260   17.8730 C   0  0  0  0  0  3  0  0  0  0  0  0
   20.8770   10.8650   20.0000 C   0  0  0  0  0  3  0  0  0  0  0  0
   19.9790   11.7730   19.1490 C   0  0  0  0  0  3  0  0  0  0  0  0
   21.1970    8.6560   19.0530 O   0  0  0  0  0  0  0  0  0  0  0  0
   21.0690    8.4990   18.0910 H   0  0  0  0  0  0  0  0  0  0  0  0
   18.5480   11.8220   17.0500 C   0  0  0  0  0  2  0  0  0  0  0  0
   18.9480   13.1910   16.9350 O   0  0  0  0  0  0  0  0  0  0  0  0
   18.1770   13.7310   17.2220 H   0  0  0  0  0  0  0  0  0  0  0  0
   21.6790   11.6960   20.8520 O   0  0  0  0  0  0  0  0  0  0  0  0
   22.5870   11.6300   20.5060 H   0  0  0  0  0  0  0  0  0  0  0  0
   18.8550   12.1670   19.9360 O   0  0  0  0  0  0  0  0  0  0  0  0
   18.3790   12.8500   19.4310 H   0  0  0  0  0  0  0  0  0  0  0  0
  1  6  1  0
  1  5  1  0
  1  2  1  0
  2  3  1  0
  3 11  1  1
  3  4  1  0
  4 30  1  0
  5  4  1  1
  5  9  1  0
  7  6  1  0
  8  7  1  0
  9 10  1  0
 11 12  1  0
 12 13  1  0
 14  3  1  0
 17 15  1  6
 15 14  1  0
 15 16  1  6
 17 21  1  0
 18 23  1  0
 20 18  1  0
 18 16  1  1
 19 26  1  0
 19 17  1  1
 20 28  1  0
 19 20  1  0
 21 22  1  0
 24 25  1  0
 24 23  1  0
 27 26  1  0
 28 29  1  0
 31 30  1  0
 31 33  1  0
 31 32  1  0
 34 32  1  0
 33 37  1  0
 33 35  1  1
 34 39  1  0
 34 36  1  0
 35 42  1  0
 36 44  1  0
 36 35  1  1
 38 37  1  0
 40 39  1  0
 40 41  1  0
 43 42  1  0
 45 44  1  0
M  END
>  <vina_score>  (2) 
-6.5179999999999998

>  <pose_id>  (2) 
2

$$$$

     RDKit          3D

 45 47  0  0  1  0  0  0  0  0999 V2000
   20.5600   10.0320   14.4510 C   0  0  0  0  0  3  0  0  0  0  0  0
   19.8200    9.3980   15.5180 O   0  0  0  0  0  0  0  0  0  0  0  0
   18.4190    9.6710   15.3330 C   0  0  1  0  0  0  0  0  0  0  0  0
   18.3620   10.9960   14.5340 C   0  0  0  0  0  3  0  0  0  0  0  0
   19.5780   10.8680   13.6220 C   0  0  0  0  0  3  0  0  0  0  0  0
   21.6970   10.8530   15.0770 C   0  0  0  0  0  2  0  0  0  0  0  0
   21.4000   11.2990   16.3980 O   0  0  0  0  0  0  0  0  0  0  0  0
   22.2150   11.7150   16.7500 H   0  0  0  0  0  0  0  0  0  0  0  0
   19.2000   10.1710   12.4280 O   0  0  0  0  0  0  0  0  0  0  0  0
   18.2800    9.8630   12.5460 H   0  0  0  0  0  0  0  0  0  0  0  0
   17.7280    8.5160   14.5380 C   0  0  0  0  0  2  0  0  0  0  0  0
   16.9590    7.6440   15.3830 O   0  0  0  0  0  0  0  0  0  0  0  0
   16.1080    8.0810   15.5310 H   0  0  0  0  0  0  0  0  0  0  0  0
   17.7370    9.8870   16.5620 O   0  0  0  0  0  0  0  0  0  0  0  0
   18.5400    9.7770   17.7300 C   0  0  0  0  0  3  0  0  0  0  0  0
   18.1650   10.8120   18.6460 O   0  0  0  0  0  0  0  0  0  0  0  0
   18.1930    8.4080   18.3540 C   0  0  0  0  0  3  0  0  0  0  0  0
   18.9710   10.8270   19.8400 C   0  0  0  0  0  3  0  0  0  0  0  0
   18.6630    8.3240   19.8130 C   0  0  0  0  0  3  0  0  0  0  0  0
   19.6200    9.4680   20.1740 C   0  0  0  0  0  3  0  0  0  0  0  0
   16.7550    8.2160   18.3160 O   0  0  0  0  0  0  0  0  0  0  0  0
   16.6380    7.3810   17.7970 H   0  0  0  0  0  0  0  0  0  0  0  0
   20.0280   11.9300   19.6790 C   0  0  0  0  0  2  0  0  0  0  0  0
   20.8440   11.9810   20.8440 O   0  0  0  0  0  0  0  0  0  0  0  0
   21.6920   12.3790   20.5570 H   0  0  0  0  0  0  0  0  0  0  0  0
   19.3420    7.0790   20.0420 O   0  0  0  0  0  0  0  0  0  0  0  0
   20.1640    7.3230   20.5100 H   0  0  0  0  0  0  0  0  0  0  0  0
   19.9670    9.3520   21.5620 O   0  0  0  0  0  0  0  0  0  0  0  0
   20.5170    8.5590   21.6760 H   0  0  0  0  0  0  0  0  0  0  0  0
   18.6110   12.1490   15.3590 O   0  0  0  0  0  0  0  0  0  0  0  0
   17.8350   13.3130   15.0450 C   0  0  0  0  0  3  0  0  0  0  0  0
   16.8720   12.9890   14.0350 O   0  0  0  0  0  0  0  0  0  0  0  0
   17.1900   13.7490   16.3800 C   0  0  0  0  0  3  0  0  0  0  0  0
   15.6370   13.7350   14.1040 C   0  0  0  0  0  3  0  0  0  0  0  0
   16.2860   14.9650   16.1830 C   0  0  0  0  0  3  0  0  0  0  0  0
   15.8350   15.1240   14.7250 C   0  0  0  0  0  3  0  0  0  0  0  0
   16.4090   12.6560   16.9150 O   0  0  0  0  0  0  0  0  0  0  0  0
   15.7940   12.4030   16.1910 H   0  0  0  0  0  0  0  0  0  0  0  0
   15.0400   13.8220   12.6930 C   0  0  0  0  0  2  0  0  0  0  0  0
   15.2050   15.1370   12.1540 O   0  0  0  0  0  0  0  0  0  0  0  0
   15.3540   15.0260   11.1890 H   0  0  0  0  0  0  0  0  0  0  0  0
   16.9820   16.1590   16.5710 O   0  0  0  0  0  0  0  0  0  0  0  0
   16.8080   16.8070   15.8650 H   0  0  0  0  0  0  0  0  0  0  0  0
   14.6430   15.9080   14.7010 O   0  0  0  0  0  0  0  0  0  0  0  0
   14.6050   16.3420   13.8300 H   0  0  0  0  0  0  0  0  0  0  0  0
  1  6  1  0
  1  2  1  0
  3 11  1  6
  3  2  1  0
  3 14  1  0
  4  3  1  0
  4 30  1  0
  5  9  1  0
  5  1  1  0
  5  4  1  1
  6  7  1  0
  7  8  1  0
  9 10  1  0
 11 12  1  0
 12 13  1  0
 15 14  1  0
 17 15  1  0
 15 16  1  1
 18 16  1  0
 17 21  1  0
 17 19  1  0
 18 23  1  0
 18 20  1  0
 19 26  1  0
 20 19  1  1
 20 28  1  0
 22 21  1  0
 23 24  1  0
 25 24  1  0
 26 27  1  0
 28 29  1  0
 31 30  1  0
 33 31  1  0
 34 32  1  0
 31 32  1  6
 33 37  1  0
 34 39  1  0
 34 36  1  0
 33 35  1  0
 35 42  1  0
 36 44  1  0
 35 36  1  1
 38 37  1  0
 40 39  1  0
 41 40  1  0
 43 42  1  0
 45 44  1  0
M  END
>  <vina_score>  (3) 
-6.444

>  <pose_id>  (3) 
3

$$$$

     RDKit          3D

 45 47  0  0  1  0  0  0  0  0999 V2000
   18.7020   10.2900   14.3050 C   0  0  0  0  0  3  0  0  0  0  0  0
   18.0370    9.9100   15.5300 O   0  0  0  0  0  0  0  0  0  0  0  0
   18.7560   10.4770   16.6410 C   0  0  1  0  0  0  0  0  0  0  0  0
   20.2100   10.6550   16.1380 C   0  0  0  0  0  3  0  0  0  0  0  0
   19.9960   11.0260   14.6740 C   0  0  0  0  0  3  0  0  0  0  0  0
   18.9280    9.0220   13.4690 C   0  0  0  0  0  2  0  0  0  0  0  0
   20.2920    8.8340   13.0990 O   0  0  0  0  0  0  0  0  0  0  0  0
   20.3090    8.6930   12.1280 H   0  0  0  0  0  0  0  0  0  0  0  0
   19.8200   12.4440   14.5680 O   0  0  0  0  0  0  0  0  0  0  0  0
   19.5330   12.6380   13.6540 H   0  0  0  0  0  0  0  0  0  0  0  0
   18.1420   11.8530   17.0570 C   0  0  0  0  0  2  0  0  0  0  0  0
   19.1390   12.8700   17.2490 O   0  0  0  0  0  0  0  0  0  0  0  0
   19.7570   12.5300   17.9110 H   0  0  0  0  0  0  0  0  0  0  0  0
   18.8000    9.6080   17.7650 O   0  0  0  0  0  0  0  0  0  0  0  0
   18.7680   10.2520   19.0330 C   0  0  0  0  0  3  0  0  0  0  0  0
   18.0250    9.4360   19.9450 O   0  0  0  0  0  0  0  0  0  0  0  0
   20.2350   10.3240   19.5070 C   0  0  0  0  0  3  0  0  0  0  0  0
   17.8780   10.0360   21.2470 C   0  0  0  0  0  3  0  0  0  0  0  0
   20.3220   10.6140   21.0120 C   0  0  0  0  0  3  0  0  0  0  0  0
   18.9740   11.0680   21.5870 C   0  0  0  0  0  3  0  0  0  0  0  0
   20.8870    9.0560   19.2390 O   0  0  0  0  0  0  0  0  0  0  0  0
   21.8460    9.2920   19.1570 H   0  0  0  0  0  0  0  0  0  0  0  0
   16.4770   10.6610   21.3200 C   0  0  0  0  0  2  0  0  0  0  0  0
   16.0960   10.8190   22.6820 O   0  0  0  0  0  0  0  0  0  0  0  0
   16.8930   10.5990   23.2080 H   0  0  0  0  0  0  0  0  0  0  0  0
   21.2890   11.6470   21.2610 O   0  0  0  0  0  0  0  0  0  0  0  0
   21.3720   12.1250   20.4130 H   0  0  0  0  0  0  0  0  0  0  0  0
   19.1230   11.2630   23.0020 O   0  0  0  0  0  0  0  0  0  0  0  0
   19.6050   10.5010   23.3680 H   0  0  0  0  0  0  0  0  0  0  0  0
   20.9460    9.4180   16.1250 O   0  0  0  0  0  0  0  0  0  0  0  0
   22.2370    9.4730   15.5060 C   0  0  0  0  0  3  0  0  0  0  0  0
   23.0160   10.5120   16.1110 O   0  0  0  0  0  0  0  0  0  0  0  0
   22.8480    8.0670   15.7020 C   0  0  0  0  0  3  0  0  0  0  0  0
   24.4390   10.2710   16.1450 C   0  0  0  0  0  3  0  0  0  0  0  0
   24.2600    7.9940   15.1260 C   0  0  0  0  0  3  0  0  0  0  0  0
   24.9020    9.3810   14.9840 C   0  0  0  0  0  3  0  0  0  0  0  0
   22.8920    7.7560   17.1130 O   0  0  0  0  0  0  0  0  0  0  0  0
   22.1750    8.2940   17.5160 H   0  0  0  0  0  0  0  0  0  0  0  0
   25.1630   11.6250   16.1480 C   0  0  0  0  0  2  0  0  0  0  0  0
   26.3750   11.5490   16.9060 O   0  0  0  0  0  0  0  0  0  0  0  0
   26.4700   10.6100   17.1840 H   0  0  0  0  0  0  0  0  0  0  0  0
   24.2270    7.3800   13.8290 O   0  0  0  0  0  0  0  0  0  0  0  0
   24.6960    7.9930   13.2350 H   0  0  0  0  0  0  0  0  0  0  0  0
   26.3200    9.2240   14.9480 O   0  0  0  0  0  0  0  0  0  0  0  0
   26.6240    9.1660   15.8720 H   0  0  0  0  0  0  0  0  0  0  0  0
  1  6  1  0
  5  1  1  0
  1  2  1  1
  2  3  1  0
  3 11  1  1
  3 14  1  0
  4 30  1  0
  4  3  1  1
  5  9  1  0
  5  4  1  0
  7  6  1  0
  8  7  1  0
 10  9  1  0
 11 12  1  0
 12 13  1  0
 15 14  1  0
 17 15  1  0
 15 16  1  1
 18 16  1  0
 17 21  1  0
 17 19  1  0
 18 23  1  0
 18 20  1  0
 19 26  1  0
 20 19  1  1
 20 28  1  0
 22 21  1  0
 23 24  1  0
 24 25  1  0
 27 26  1  0
 28 29  1  0
 33 31  1  6
 31 32  1  1
 31 30  1  0
 34 32  1  0
 33 37  1  0
 34 39  1  0
 35 42  1  0
 35 33  1  1
 36 44  1  0
 36 35  1  1
 36 34  1  0
 37 38  1  0
 39 40  1  0
 40 41  1  0
 43 42  1  0
 44 45  1  0
M  END
>  <vina_score>  (4) 
-6.29

>  <pose_id>  (4) 
4

$$$$

     RDKit          3D

 45 47  0  0  1  0  0  0  0  0999 V2000
   24.1230   11.9220   11.7550 C   0  0  0  0  0  3  0  0  0  0  0  0
   22.7240   12.1220   11.4550 O   0  0  0  0  0  0  0  0  0  0  0  0
   22.0890   12.7240   12.5980 C   0  0  1  0  0  0  0  0  0  0  0  0
   22.9460   12.2970   13.8140 C   0  0  0  0  0  3  0  0  0  0  0  0
   24.3530   12.2940   13.2250 C   0  0  0  0  0  3  0  0  0  0  0  0
   24.4810   10.4660   11.4210 C   0  0  0  0  0  2  0  0  0  0  0  0
   23.5330    9.5300   11.9260 O   0  0  0  0  0  0  0  0  0  0  0  0
   23.5630    9.5910   12.9050 H   0  0  0  0  0  0  0  0  0  0  0  0
   24.9120   13.6080   13.3330 O   0  0  0  0  0  0  0  0  0  0  0  0
   24.2310   14.2440   13.0360 H   0  0  0  0  0  0  0  0  0  0  0  0
   22.0580   14.2810   12.4620 C   0  0  0  0  0  2  0  0  0  0  0  0
   22.3590   14.7280   11.1300 O   0  0  0  0  0  0  0  0  0  0  0  0
   23.3200   14.8380   11.0860 H   0  0  0  0  0  0  0  0  0  0  0  0
   20.7720   12.2330   12.8140 O   0  0  0  0  0  0  0  0  0  0  0  0
   19.9200   13.0880   13.5660 C   0  0  0  0  0  3  0  0  0  0  0  0
   18.6600   13.1910   12.8930 O   0  0  0  0  0  0  0  0  0  0  0  0
   19.7050   12.3830   14.9220 C   0  0  0  0  0  3  0  0  0  0  0  0
   17.7440   14.0920   13.5450 C   0  0  0  0  0  3  0  0  0  0  0  0
   18.5010   12.9690   15.6720 C   0  0  0  0  0  3  0  0  0  0  0  0
   18.0240   14.2880   15.0500 C   0  0  0  0  0  3  0  0  0  0  0  0
   19.4690   10.9700   14.6940 O   0  0  0  0  0  0  0  0  0  0  0  0
   18.5710   10.8110   15.0820 H   0  0  0  0  0  0  0  0  0  0  0  0
   17.7830   15.4290   12.7890 C   0  0  0  0  0  2  0  0  0  0  0  0
   18.0750   16.4820   13.6990 O   0  0  0  0  0  0  0  0  0  0  0  0
   17.4300   16.3870   14.4300 H   0  0  0  0  0  0  0  0  0  0  0  0
   18.8470   13.2180   17.0450 O   0  0  0  0  0  0  0  0  0  0  0  0
   19.1010   12.3450   17.4030 H   0  0  0  0  0  0  0  0  0  0  0  0
   16.8670   14.7400   15.7680 O   0  0  0  0  0  0  0  0  0  0  0  0
   16.2070   15.0480   15.1240 H   0  0  0  0  0  0  0  0  0  0  0  0
   22.6890   10.9400   14.2220 O   0  0  0  0  0  0  0  0  0  0  0  0
   23.1330   10.5980   15.5410 C   0  0  0  0  0  3  0  0  0  0  0  0
   22.0060   10.5010   16.4190 O   0  0  0  0  0  0  0  0  0  0  0  0
   23.8950    9.2620   15.3830 C   0  0  0  0  0  3  0  0  0  0  0  0
   22.1440    9.5440   17.4910 C   0  0  0  0  0  3  0  0  0  0  0  0
   24.3910    8.7480   16.7330 C   0  0  0  0  0  3  0  0  0  0  0  0
   23.6070    9.3510   17.9080 C   0  0  0  0  0  3  0  0  0  0  0  0
   23.0170    8.2770   14.7910 O   0  0  0  0  0  0  0  0  0  0  0  0
   23.2310    8.2890   13.8320 H   0  0  0  0  0  0  0  0  0  0  0  0
   21.2730   10.0020   18.6680 C   0  0  0  0  0  2  0  0  0  0  0  0
   20.6390   11.2510   18.3730 O   0  0  0  0  0  0  0  0  0  0  0  0
   19.6980   11.0440   18.1730 H   0  0  0  0  0  0  0  0  0  0  0  0
   25.7780    9.0770   16.9020 O   0  0  0  0  0  0  0  0  0  0  0  0
   25.7970   10.0220   17.1380 H   0  0  0  0  0  0  0  0  0  0  0  0
   23.7450    8.4870   19.0360 O   0  0  0  0  0  0  0  0  0  0  0  0
   23.5400    7.5850   18.7310 H   0  0  0  0  0  0  0  0  0  0  0  0
  1  6  1  0
  1  5  1  0
  1  2  1  0
  2  3  1  0
  3 11  1  6
  3 14  1  0
  3  4  1  0
  4 30  1  0
  5  9  1  0
  5  4  1  1
  6  7  1  0
  7  8  1  0
 10  9  1  0
 12 11  1  0
 13 12  1  0
 15 14  1  0
 15 17  1  0
 18 16  1  0
 15 16  1  0
 17 21  1  0
 17 19  1  1
 18 23  1  0
 18 20  1  0
 19 26  1  0
 20 19  1  1
 20 28  1  0
 21 22  1  0
 23 24  1  0
 24 25  1  0
 26 27  1  0
 29 28  1  0
 31 30  1  0
 31 32  1  0
 34 32  1  6
 33 37  1  0
 33 31  1  0
 35 33  1  1
 36 34  1  0
 34 39  1  0
 35 42  1  0
 36 35  1  0
 36 44  1  0
 38 37  1  0
 40 39  1  0
 41 40  1  0
 42 43  1  0
 45 44  1  0
M  END
>  <vina_score>  (5) 
-6.2729999999999997

>  <pose_id>  (5) 
5

$$$$
