
     RDKit          3D

 23 25  0  0  1  0  0  0  0  0999 V2000
   19.6630   10.9820   12.4890 O   0  0  0  0  0  0  0  0  0  0  0  0
   19.7870   11.9660   13.2190 C   0  0  0  0  0  0  0  0  0  0  0  0
   20.9930   12.6040   13.4410 N   0  0  0  0  0  0  0  0  0  0  0  0
   20.9630   13.5410   13.8140 H   0  0  0  0  0  0  0  0  0  0  0  0
   18.6090   12.6010   13.9680 C   0  0  0  0  0  2  0  0  0  0  0  0
   17.6030   13.1130   13.0300 N   0  0  0  0  0  0  0  0  0  0  0  0
   16.2450   12.9970   13.5570 C   0  0  0  0  0  2  0  0  0  0  0  0
   17.7680   14.5230   12.6770 C   0  0  0  0  0  2  0  0  0  0  0  0
   15.4470   13.8230   12.5660 C   0  0  0  0  0  2  0  0  0  0  0  0
   16.3970   14.9390   12.1490 C   0  0  0  0  0  2  0  0  0  0  0  0
   22.1810   12.2630   12.6750 C   0  0  0  0  0  3  0  0  0  0  0  0
   23.3690   11.8920   13.5640 C   0  0  0  0  0  0  0  0  0  0  0  0
   23.7680   12.7930   14.5710 C   0  0  0  0  0  3  0  0  0  0  0  0
   24.0830   10.6910   13.4320 C   0  0  0  0  0  3  0  0  0  0  0  0
   24.8430   12.5030   15.4120 C   0  0  0  0  0  3  0  0  0  0  0  0
   25.1590   10.4020   14.2760 C   0  0  0  0  0  3  0  0  0  0  0  0
   25.5380   11.3060   15.2650 C   0  0  0  0  0  3  0  0  0  0  0  0
   22.4590   13.4050   11.6990 C   0  0  0  0  0  0  0  0  0  0  0  0
   21.6790   14.5730   11.6690 C   0  0  0  0  0  3  0  0  0  0  0  0
   23.4850   13.2590   10.7480 C   0  0  0  0  0  3  0  0  0  0  0  0
   21.9380   15.5780   10.7330 C   0  0  0  0  0  3  0  0  0  0  0  0
   23.7390   14.2630    9.8120 C   0  0  0  0  0  3  0  0  0  0  0  0
   22.9680   15.4230    9.8060 C   0  0  0  0  0  3  0  0  0  0  0  0
  1  2  2  0
  2  3  1  0
  2  5  1  0
  3  4  1  0
  6  7  1  0
  6  5  1  0
  8  6  1  0
  9  7  1  0
 10  9  1  0
 10  8  1  0
 11  3  1  0
 11 12  1  0
 12 13  2  0
 13 15  1  0
 14 12  1  0
 14 16  2  0
 16 17  1  0
 17 15  2  0
 18 11  1  0
 19 18  2  0
 20 18  1  0
 21 19  1  0
 22 20  2  0
 23 22  1  0
 23 21  2  0
M  RAD  8   5   3   7   3   8   3   9   3  10   3  11   2  13   2  14   2
M  RAD  8  15   2  16   2  17   2  19   2  20   2  21   2  22   2  23   2
M  END
>  <vina_score>  (1) 
-6.8079999999999998

>  <pose_id>  (1) 
1

$$$$

     RDKit          3D

 23 25  0  0  1  0  0  0  0  0999 V2000
   19.1930   11.5490   12.7950 O   0  0  0  0  0  0  0  0  0  0  0  0
   19.7230   12.4050   13.5030 C   0  0  0  0  0  0  0  0  0  0  0  0
   19.2760   13.7110   13.5860 N   0  0  0  0  0  0  0  0  0  0  0  0
   19.5800   14.2580   14.3770 H   0  0  0  0  0  0  0  0  0  0  0  0
   20.9470   12.1180   14.3810 C   0  0  0  0  0  2  0  0  0  0  0  0
   22.1880   12.4950   13.6960 N   0  0  0  0  0  0  0  0  0  0  0  0
   23.2880   12.7250   14.6300 C   0  0  0  0  0  2  0  0  0  0  0  0
   22.6810   11.4990   12.7450 C   0  0  0  0  0  2  0  0  0  0  0  0
   24.4830   12.8160   13.6980 C   0  0  0  0  0  2  0  0  0  0  0  0
   24.1560   11.8520   12.5640 C   0  0  0  0  0  2  0  0  0  0  0  0
   18.0230   14.1210   12.9740 C   0  0  0  0  0  3  0  0  0  0  0  0
   18.2300   14.9310   11.6920 C   0  0  0  0  0  0  0  0  0  0  0  0
   19.5450   15.1730   11.2490 C   0  0  0  0  0  3  0  0  0  0  0  0
   17.1710   15.4430   10.9260 C   0  0  0  0  0  3  0  0  0  0  0  0
   19.7900   15.9020   10.0860 C   0  0  0  0  0  3  0  0  0  0  0  0
   17.4190   16.1720    9.7610 C   0  0  0  0  0  3  0  0  0  0  0  0
   18.7260   16.4000    9.3400 C   0  0  0  0  0  3  0  0  0  0  0  0
   17.1870   14.8320   14.0370 C   0  0  0  0  0  0  0  0  0  0  0  0
   15.8110   14.5930   14.1930 C   0  0  0  0  0  3  0  0  0  0  0  0
   17.7930   15.8120   14.8430 C   0  0  0  0  0  3  0  0  0  0  0  0
   15.0710   15.2940   15.1480 C   0  0  0  0  0  3  0  0  0  0  0  0
   17.0500   16.5130   15.7940 C   0  0  0  0  0  3  0  0  0  0  0  0
   15.6900   16.2520   15.9490 C   0  0  0  0  0  3  0  0  0  0  0  0
  1  2  2  0
  2  3  1  0
  2  5  1  0
  3  4  1  0
  6  5  1  0
  6  7  1  0
  8  6  1  0
  9  7  1  0
 10  8  1  0
 10  9  1  0
 11  3  1  0
 11 18  1  0
 12 11  1  0
 13 12  2  0
 14 12  1  0
 15 13  1  0
 16 14  2  0
 17 16  1  0
 17 15  2  0
 18 19  2  0
 18 20  1  0
 19 21  1  0
 20 22  2  0
 21 23  2  0
 22 23  1  0
M  RAD  8   5   3   7   3   8   3   9   3  10   3  11   2  13   2  14   2
M  RAD  8  15   2  16   2  17   2  19   2  20   2  21   2  22   2  23   2
M  END
>  <vina_score>  (2) 
-6.766

>  <pose_id>  (2) 
2

$$$$

     RDKit          3D

 23 25  0  0  1  0  0  0  0  0999 V2000
   19.9560   15.7670   15.3080 O   0  0  0  0  0  0  0  0  0  0  0  0
   19.5180   14.7220   14.8280 C   0  0  0  0  0  0  0  0  0  0  0  0
   20.1150   14.0570   13.7720 N   0  0  0  0  0  0  0  0  0  0  0  0
   19.8630   13.0910   13.6270 H   0  0  0  0  0  0  0  0  0  0  0  0
   18.2540   14.0300   15.3520 C   0  0  0  0  0  2  0  0  0  0  0  0
   17.2610   15.0150   15.7970 N   0  0  0  0  0  0  0  0  0  0  0  0
   16.7160   15.7920   14.6850 C   0  0  0  0  0  2  0  0  0  0  0  0
   16.1020   14.4400   16.4790 C   0  0  0  0  0  2  0  0  0  0  0  0
   15.5520   16.5110   15.3400 C   0  0  0  0  0  2  0  0  0  0  0  0
   15.0330   15.5250   16.3810 C   0  0  0  0  0  2  0  0  0  0  0  0
   21.4190   14.4570   13.2680 C   0  0  0  0  0  3  0  0  0  0  0  0
   21.3440   15.0890   11.8770 C   0  0  0  0  0  0  0  0  0  0  0  0
   20.0880   15.1990   11.2490 C   0  0  0  0  0  3  0  0  0  0  0  0
   22.4690   15.5750   11.1910 C   0  0  0  0  0  3  0  0  0  0  0  0
   19.9620   15.7700    9.9830 C   0  0  0  0  0  3  0  0  0  0  0  0
   22.3410   16.1480    9.9230 C   0  0  0  0  0  3  0  0  0  0  0  0
   21.0900   16.2460    9.3200 C   0  0  0  0  0  3  0  0  0  0  0  0
   22.3520   13.2510   13.3600 C   0  0  0  0  0  0  0  0  0  0  0  0
   23.4050   13.1860   14.2880 C   0  0  0  0  0  3  0  0  0  0  0  0
   22.2030   12.1980   12.4400 C   0  0  0  0  0  3  0  0  0  0  0  0
   24.2650   12.0850   14.3130 C   0  0  0  0  0  3  0  0  0  0  0  0
   23.0660   11.1000   12.4650 C   0  0  0  0  0  3  0  0  0  0  0  0
   24.0940   11.0430   13.4030 C   0  0  0  0  0  3  0  0  0  0  0  0
  2  1  2  0
  2  5  1  0
  3  2  1  0
  4  3  1  0
  5  6  1  0
  6  8  1  0
  7  9  1  0
  7  6  1  0
  9 10  1  0
 10  8  1  0
 11 18  1  0
 11  3  1  0
 12 11  1  0
 13 12  2  0
 14 12  1  0
 15 13  1  0
 16 14  2  0
 17 16  1  0
 17 15  2  0
 18 19  2  0
 19 21  1  0
 20 22  2  0
 20 18  1  0
 22 23  1  0
 23 21  2  0
M  RAD  8   5   3   7   3   8   3   9   3  10   3  11   2  13   2  14   2
M  RAD  8  15   2  16   2  17   2  19   2  20   2  21   2  22   2  23   2
M  END
>  <vina_score>  (3) 
-6.6390000000000002

>  <pose_id>  (3) 
3

$$$$

     RDKit          3D

 23 25  0  0  1  0  0  0  0  0999 V2000
   19.9300   15.4280   15.1760 O   0  0  0  0  0  0  0  0  0  0  0  0
   19.6150   14.3210   14.7420 C   0  0  0  0  0  0  0  0  0  0  0  0
   20.2800   13.6890   13.7070 N   0  0  0  0  0  0  0  0  0  0  0  0
   20.1420   12.6960   13.6020 H   0  0  0  0  0  0  0  0  0  0  0  0
   18.4420   13.5090   15.3040 C   0  0  0  0  0  2  0  0  0  0  0  0
   17.3390   13.4390   14.3390 N   0  0  0  0  0  0  0  0  0  0  0  0
   16.1520   12.7960   14.8990 C   0  0  0  0  0  2  0  0  0  0  0  0
   16.8850   14.7390   13.8440 C   0  0  0  0  0  2  0  0  0  0  0  0
   15.1010   13.0930   13.8460 C   0  0  0  0  0  2  0  0  0  0  0  0
   15.4840   14.4650   13.3030 C   0  0  0  0  0  2  0  0  0  0  0  0
   21.5260   14.2180   13.1760 C   0  0  0  0  0  3  0  0  0  0  0  0
   21.3450   14.9060   11.8210 C   0  0  0  0  0  0  0  0  0  0  0  0
   22.4910   15.2970   11.1020 C   0  0  0  0  0  3  0  0  0  0  0  0
   20.0880   15.1640   11.2510 C   0  0  0  0  0  3  0  0  0  0  0  0
   22.3840   15.9250    9.8610 C   0  0  0  0  0  3  0  0  0  0  0  0
   19.9830   15.7920   10.0080 C   0  0  0  0  0  3  0  0  0  0  0  0
   21.1280   16.1710    9.3130 C   0  0  0  0  0  3  0  0  0  0  0  0
   22.5560   13.0890   13.1730 C   0  0  0  0  0  0  0  0  0  0  0  0
   22.4360   11.9660   12.3370 C   0  0  0  0  0  3  0  0  0  0  0  0
   23.6240   13.1340   14.0870 C   0  0  0  0  0  3  0  0  0  0  0  0
   23.3760   10.9330   12.3940 C   0  0  0  0  0  3  0  0  0  0  0  0
   24.5600   12.1000   14.1440 C   0  0  0  0  0  3  0  0  0  0  0  0
   24.4370   11.0010   13.2960 C   0  0  0  0  0  3  0  0  0  0  0  0
  2  1  2  0
  2  5  1  0
  3  2  1  0
  4  3  1  0
  6  7  1  0
  6  5  1  0
  8  6  1  0
  9  7  1  0
 10  8  1  0
 10  9  1  0
 11  3  1  0
 12 11  1  0
 13 12  2  0
 14 12  1  0
 15 13  1  0
 16 14  2  0
 17 15  2  0
 17 16  1  0
 18 11  1  0
 18 20  1  0
 19 21  1  0
 19 18  2  0
 20 22  2  0
 21 23  2  0
 23 22  1  0
M  RAD  8   5   3   7   3   8   3   9   3  10   3  11   2  13   2  14   2
M  RAD  8  15   2  16   2  17   2  19   2  20   2  21   2  22   2  23   2
M  END
>  <vina_score>  (4) 
-6.4989999999999997

>  <pose_id>  (4) 
4

$$$$

     RDKit          3D

 23 25  0  0  1  0  0  0  0  0999 V2000
   18.6950   13.1070   16.9150 O   0  0  0  0  0  0  0  0  0  0  0  0
   17.6520   12.5270   17.2160 C   0  0  0  0  0  0  0  0  0  0  0  0
   17.5560   11.6210   18.2560 N   0  0  0  0  0  0  0  0  0  0  0  0
   16.6330   11.4100   18.6060 H   0  0  0  0  0  0  0  0  0  0  0  0
   16.3310   12.7480   16.4700 C   0  0  0  0  0  2  0  0  0  0  0  0
   16.3060   14.0630   15.8200 N   0  0  0  0  0  0  0  0  0  0  0  0
   15.8330   13.9890   14.4390 C   0  0  0  0  0  2  0  0  0  0  0  0
   15.4460   15.0470   16.4770 C   0  0  0  0  0  2  0  0  0  0  0  0
   15.6330   15.4530   14.0920 C   0  0  0  0  0  2  0  0  0  0  0  0
   15.1850   16.0960   15.3990 C   0  0  0  0  0  2  0  0  0  0  0  0
   18.6520   11.4240   19.1900 C   0  0  0  0  0  3  0  0  0  0  0  0
   19.5810   10.2810   18.7780 C   0  0  0  0  0  0  0  0  0  0  0  0
   20.9440   10.5610   18.5620 C   0  0  0  0  0  3  0  0  0  0  0  0
   19.1440    8.9570   18.6080 C   0  0  0  0  0  3  0  0  0  0  0  0
   21.8360    9.5550   18.1880 C   0  0  0  0  0  3  0  0  0  0  0  0
   20.0390    7.9510   18.2340 C   0  0  0  0  0  3  0  0  0  0  0  0
   21.3830    8.2490   18.0260 C   0  0  0  0  0  3  0  0  0  0  0  0
   18.0590   11.2760   20.5910 C   0  0  0  0  0  0  0  0  0  0  0  0
   16.7390   10.8440   20.8050 C   0  0  0  0  0  3  0  0  0  0  0  0
   18.8300   11.6520   21.7050 C   0  0  0  0  0  3  0  0  0  0  0  0
   16.2180   10.7620   22.0990 C   0  0  0  0  0  3  0  0  0  0  0  0
   18.3060   11.5720   22.9970 C   0  0  0  0  0  3  0  0  0  0  0  0
   17.0020   11.1250   23.1930 C   0  0  0  0  0  3  0  0  0  0  0  0
  1  2  2  0
  2  3  1  0
  3  4  1  0
  5  2  1  0
  6  5  1  0
  6  8  1  0
  7  6  1  0
  9  7  1  0
  9 10  1  0
 10  8  1  0
 11  3  1  0
 11 18  1  0
 12 11  1  0
 13 12  2  0
 14 12  1  0
 15 13  1  0
 16 14  2  0
 17 15  2  0
 17 16  1  0
 18 19  2  0
 18 20  1  0
 19 21  1  0
 20 22  2  0
 21 23  2  0
 22 23  1  0
M  RAD  8   5   3   7   3   8   3   9   3  10   3  11   2  13   2  14   2
M  RAD  8  15   2  16   2  17   2  19   2  20   2  21   2  22   2  23   2
M  END
>  <vina_score>  (5) 
-6.4109999999999996

>  <pose_id>  (5) 
5

$$$$
