
     RDKit          3D

 24 25  0  0  0  0  0  0  0  0999 V2000
   18.2350   15.0640   11.7890 C   0  0  0  0  0  0  0  0  0  0  0  0
   18.0830   15.7350   10.5720 C   0  0  0  0  0  3  0  0  0  0  0  0
   19.2150   16.0880    9.8310 C   0  0  0  0  0  3  0  0  0  0  0  0
   20.4930   15.7640   10.2970 C   0  0  0  0  0  0  0  0  0  0  0  0
   21.8440   16.1910    9.3130 Cl  0  0  0  0  0  0  0  0  0  0  0  0
   20.6310   15.0730   11.5070 C   0  0  0  0  0  0  0  0  0  0  0  0
   19.5040   14.7110   12.2540 C   0  0  0  0  0  3  0  0  0  0  0  0
   16.7940   14.5800   12.7220 S   0  0  1  0  0  0  0  0  0  0  0  0
   15.6370   15.0500   11.9890 O   0  0  0  0  0  0  0  0  0  0  0  0
   16.9570   13.1780   13.0440 O   0  0  0  0  0  0  0  0  0  0  0  0
   16.9350   15.4870   14.1490 N   0  0  0  0  0  0  0  0  0  0  0  0
   15.8800   16.4740   14.4320 C   0  0  0  0  0  1  0  0  0  0  0  0
   17.4050   14.7770   15.3530 C   0  0  0  0  0  1  0  0  0  0  0  0
   21.9580   14.7310   12.0490 C   0  0  0  0  0  0  0  0  0  0  0  0
   22.6050   15.5740   12.6520 O   0  0  0  0  0  0  0  0  0  0  0  0
   22.3460   13.4270   11.8400 N   0  0  0  0  0  0  0  0  0  0  0  0
   21.7810   12.8270   11.2520 H   0  0  0  0  0  0  0  0  0  0  0  0
   23.6630   12.9600   12.2270 C   0  0  0  0  0  2  0  0  0  0  0  0
   23.6090   11.8460   13.2880 C   0  0  0  0  0  3  0  0  0  0  0  0
   24.8200   10.9090   13.1120 C   0  0  0  0  0  2  0  0  0  0  0  0
   23.5050   12.4040   14.7240 C   0  0  0  0  0  2  0  0  0  0  0  0
   25.1300   10.1420   14.3900 C   0  0  0  0  0  2  0  0  0  0  0  0
   24.8600   12.4660   15.4200 C   0  0  0  0  0  2  0  0  0  0  0  0
   25.5040   11.0830   15.5340 C   0  0  0  0  0  2  0  0  0  0  0  0
  1  7  2  0
  1  8  1  0
  2  1  1  0
  3  4  1  0
  3  2  2  0
  4  6  2  0
  5  4  1  0
  6 14  1  0
  6  7  1  0
  8 10  2  0
  8 11  1  1
  9  8  2  0
 11 12  1  0
 11 13  1  0
 14 15  2  0
 16 14  1  0
 16 18  1  0
 17 16  1  0
 18 19  1  0
 19 21  1  0
 20 19  1  0
 20 22  1  0
 21 23  1  0
 22 24  1  0
 23 24  1  0
M  RAD  8   2   2   3   2   7   2  12   2  13   2  18   3  19   2  20   3
M  RAD  4  21   3  22   3  23   3  24   3
M  END
>  <vina_score>  (1) 
-6.9870000000000001

>  <pose_id>  (1) 
1

$$$$

     RDKit          3D

 24 25  0  0  0  0  0  0  0  0999 V2000
   17.4440   14.5650   12.3820 C   0  0  0  0  0  0  0  0  0  0  0  0
   17.7130   15.2990   11.2220 C   0  0  0  0  0  3  0  0  0  0  0  0
   19.0360   15.6010   10.8870 C   0  0  0  0  0  3  0  0  0  0  0  0
   20.0880   15.1640   11.7000 C   0  0  0  0  0  0  0  0  0  0  0  0
   21.6990   15.5350   11.2050 Cl  0  0  0  0  0  0  0  0  0  0  0  0
   19.8070   14.4110   12.8450 C   0  0  0  0  0  0  0  0  0  0  0  0
   18.4850   14.0990   13.1880 C   0  0  0  0  0  3  0  0  0  0  0  0
   15.7610   14.1470   12.7970 S   0  0  1  0  0  0  0  0  0  0  0  0
   14.9260   14.6250   11.7150 O   0  0  0  0  0  0  0  0  0  0  0  0
   15.7600   12.7510   13.1800 O   0  0  0  0  0  0  0  0  0  0  0  0
   15.4560   15.0900   14.1740 N   0  0  0  0  0  0  0  0  0  0  0  0
   15.7240   14.4780   15.4860 C   0  0  0  0  0  1  0  0  0  0  0  0
   15.8290   16.5140   14.1090 C   0  0  0  0  0  1  0  0  0  0  0  0
   20.8790   13.9490   13.7440 C   0  0  0  0  0  0  0  0  0  0  0  0
   21.5110   14.7590   14.4060 O   0  0  0  0  0  0  0  0  0  0  0  0
   21.0560   12.5840   13.7730 N   0  0  0  0  0  0  0  0  0  0  0  0
   20.5440   12.0000   13.1230 H   0  0  0  0  0  0  0  0  0  0  0  0
   22.1330   11.9780   14.5310 C   0  0  0  0  0  2  0  0  0  0  0  0
   23.3690   11.6730   13.6670 C   0  0  0  0  0  3  0  0  0  0  0  0
   22.9330   11.4560   12.2040 C   0  0  0  0  0  2  0  0  0  0  0  0
   24.4610   12.7570   13.7960 C   0  0  0  0  0  2  0  0  0  0  0  0
   24.0830   11.6810   11.2330 C   0  0  0  0  0  2  0  0  0  0  0  0
   24.4020   13.7760   12.6630 C   0  0  0  0  0  2  0  0  0  0  0  0
   24.6000   13.1180   11.2970 C   0  0  0  0  0  2  0  0  0  0  0  0
  1  8  1  0
  1  7  2  0
  2  1  1  0
  3  2  2  0
  3  4  1  0
  4  6  2  0
  5  4  1  0
  6  7  1  0
  6 14  1  0
  8 10  2  0
  8 11  1  1
  9  8  2  0
 11 12  1  0
 13 11  1  0
 14 16  1  0
 14 15  2  0
 16 18  1  0
 17 16  1  0
 19 21  1  0
 19 18  1  0
 20 19  1  0
 22 24  1  0
 22 20  1  0
 23 21  1  0
 24 23  1  0
M  RAD  8   2   2   3   2   7   2  12   2  13   2  18   3  19   2  20   3
M  RAD  4  21   3  22   3  23   3  24   3
M  END
>  <vina_score>  (2) 
-6.9359999999999999

>  <pose_id>  (2) 
2

$$$$

     RDKit          3D

 24 25  0  0  0  0  0  0  0  0999 V2000
   22.0980   14.0800   12.1240 C   0  0  0  0  0  0  0  0  0  0  0  0
   22.4950   14.7590   10.9670 C   0  0  0  0  0  3  0  0  0  0  0  0
   21.5510   15.4870   10.2360 C   0  0  0  0  0  3  0  0  0  0  0  0
   20.2200   15.5470   10.6630 C   0  0  0  0  0  0  0  0  0  0  0  0
   19.1180   16.4980    9.7380 Cl  0  0  0  0  0  0  0  0  0  0  0  0
   19.8410   14.8810   11.8350 C   0  0  0  0  0  0  0  0  0  0  0  0
   20.7790   14.1530   12.5770 C   0  0  0  0  0  3  0  0  0  0  0  0
   23.3040   13.1780   13.0800 S   0  0  1  0  0  0  0  0  0  0  0  0
   24.6020   13.7330   12.7580 O   0  0  0  0  0  0  0  0  0  0  0  0
   22.8190   13.1510   14.4440 O   0  0  0  0  0  0  0  0  0  0  0  0
   23.2110   11.6100   12.4380 N   0  0  0  0  0  0  0  0  0  0  0  0
   24.4330   11.0520   11.8350 C   0  0  0  0  0  1  0  0  0  0  0  0
   22.4330   10.6160   13.1990 C   0  0  0  0  0  1  0  0  0  0  0  0
   18.4470   14.8960   12.3100 C   0  0  0  0  0  0  0  0  0  0  0  0
   17.7500   13.9000   12.1870 O   0  0  0  0  0  0  0  0  0  0  0  0
   18.0530   16.0770   12.8990 N   0  0  0  0  0  0  0  0  0  0  0  0
   18.6730   16.8770   12.8760 H   0  0  0  0  0  0  0  0  0  0  0  0
   16.6850   16.2860   13.3310 C   0  0  0  0  0  2  0  0  0  0  0  0
   16.5390   16.2780   14.8630 C   0  0  0  0  0  3  0  0  0  0  0  0
   15.0700   15.9990   15.2380 C   0  0  0  0  0  2  0  0  0  0  0  0
   17.5130   15.2910   15.5440 C   0  0  0  0  0  2  0  0  0  0  0  0
   14.9430   15.4560   16.6560 C   0  0  0  0  0  2  0  0  0  0  0  0
   16.8540   13.9550   15.8640 C   0  0  0  0  0  2  0  0  0  0  0  0
   15.6660   14.1190   16.8130 C   0  0  0  0  0  2  0  0  0  0  0  0
  1  7  2  0
  1  8  1  0
  2  1  1  0
  3  4  1  0
  3  2  2  0
  4  6  2  0
  5  4  1  0
  6 14  1  0
  6  7  1  0
  8 10  2  0
  9  8  2  0
  8 11  1  6
 11 13  1  0
 12 11  1  0
 14 16  1  0
 15 14  2  0
 16 18  1  0
 17 16  1  0
 18 19  1  0
 19 20  1  0
 19 21  1  0
 20 22  1  0
 21 23  1  0
 22 24  1  0
 23 24  1  0
M  RAD  8   2   2   3   2   7   2  12   2  13   2  18   3  19   2  20   3
M  RAD  4  21   3  22   3  23   3  24   3
M  END
>  <vina_score>  (3) 
-6.734

>  <pose_id>  (3) 
3

$$$$

     RDKit          3D

 24 25  0  0  0  0  0  0  0  0999 V2000
   22.4140   12.5560   12.3190 C   0  0  0  0  0  0  0  0  0  0  0  0
   22.3610   13.8750   11.8560 C   0  0  0  0  0  3  0  0  0  0  0  0
   21.1670   14.5950   11.9560 C   0  0  0  0  0  3  0  0  0  0  0  0
   20.0330   14.0060   12.5250 C   0  0  0  0  0  0  0  0  0  0  0  0
   18.6050   14.9660   12.6560 Cl  0  0  0  0  0  0  0  0  0  0  0  0
   20.1040   12.6930   13.0050 C   0  0  0  0  0  0  0  0  0  0  0  0
   21.2970   11.9650   12.9140 C   0  0  0  0  0  3  0  0  0  0  0  0
   23.9430   11.6440   12.2260 S   0  0  1  0  0  0  0  0  0  0  0  0
   23.6290   10.3450   11.6680 O   0  0  0  0  0  0  0  0  0  0  0  0
   24.9110   12.5150   11.5940 O   0  0  0  0  0  0  0  0  0  0  0  0
   24.3720   11.4430   13.8560 N   0  0  0  0  0  0  0  0  0  0  0  0
   25.1820   10.2620   14.2020 C   0  0  0  0  0  1  0  0  0  0  0  0
   24.7590   12.6520   14.6030 C   0  0  0  0  0  1  0  0  0  0  0  0
   18.9300   12.0240   13.5900 C   0  0  0  0  0  0  0  0  0  0  0  0
   18.2200   11.3160   12.8910 O   0  0  0  0  0  0  0  0  0  0  0  0
   18.7530   12.2480   14.9370 N   0  0  0  0  0  0  0  0  0  0  0  0
   19.3420   12.9200   15.4130 H   0  0  0  0  0  0  0  0  0  0  0  0
   17.5910   11.7390   15.6410 C   0  0  0  0  0  2  0  0  0  0  0  0
   16.5050   12.8100   15.8430 C   0  0  0  0  0  3  0  0  0  0  0  0
   17.1480   14.2100   15.7960 C   0  0  0  0  0  2  0  0  0  0  0  0
   15.3420   12.6670   14.8370 C   0  0  0  0  0  2  0  0  0  0  0  0
   16.1280   15.2880   15.4540 C   0  0  0  0  0  2  0  0  0  0  0  0
   15.4920   13.6010   13.6420 C   0  0  0  0  0  2  0  0  0  0  0  0
   15.5210   15.0700   14.0680 C   0  0  0  0  0  2  0  0  0  0  0  0
  1  7  2  0
  2  3  2  0
  2  1  1  0
  3  4  1  0
  4  5  1  0
  4  6  2  0
  6 14  1  0
  7  6  1  0
  8  1  1  0
  8 11  1  1
  9  8  2  0
 10  8  2  0
 11 12  1  0
 11 13  1  0
 14 16  1  0
 15 14  2  0
 16 17  1  0
 16 18  1  0
 18 19  1  0
 20 19  1  0
 21 19  1  0
 22 20  1  0
 23 24  1  0
 23 21  1  0
 24 22  1  0
M  RAD  8   2   2   3   2   7   2  12   2  13   2  18   3  19   2  20   3
M  RAD  4  21   3  22   3  23   3  24   3
M  END
>  <vina_score>  (4) 
-6.649

>  <pose_id>  (4) 
4

$$$$

     RDKit          3D

 24 25  0  0  0  0  0  0  0  0999 V2000
   21.9720   12.8640   12.7190 C   0  0  0  0  0  0  0  0  0  0  0  0
   23.0070   13.4330   11.9700 C   0  0  0  0  0  3  0  0  0  0  0  0
   22.7490   14.5520   11.1730 C   0  0  0  0  0  3  0  0  0  0  0  0
   21.4670   15.1090   11.1300 C   0  0  0  0  0  0  0  0  0  0  0  0
   21.2280   16.5150   10.1590 Cl  0  0  0  0  0  0  0  0  0  0  0  0
   20.4440   14.5440   11.9020 C   0  0  0  0  0  0  0  0  0  0  0  0
   20.6920   13.4260   12.7070 C   0  0  0  0  0  3  0  0  0  0  0  0
   22.3020   11.4580   13.7650 S   0  0  1  0  0  0  0  0  0  0  0  0
   21.5970   11.6810   15.0100 O   0  0  0  0  0  0  0  0  0  0  0  0
   22.0530   10.2770   12.9660 O   0  0  0  0  0  0  0  0  0  0  0  0
   23.9690   11.5770   14.0580 N   0  0  0  0  0  0  0  0  0  0  0  0
   24.3910   11.9940   15.4060 C   0  0  0  0  0  1  0  0  0  0  0  0
   24.8300   10.5330   13.4760 C   0  0  0  0  0  1  0  0  0  0  0  0
   19.0730   15.0810   11.8720 C   0  0  0  0  0  0  0  0  0  0  0  0
   18.4240   15.0380   10.8370 O   0  0  0  0  0  0  0  0  0  0  0  0
   18.6240   15.5780   13.0740 N   0  0  0  0  0  0  0  0  0  0  0  0
   19.2650   15.6520   13.8540 H   0  0  0  0  0  0  0  0  0  0  0  0
   17.3330   16.2300   13.1880 C   0  0  0  0  0  2  0  0  0  0  0  0
   16.2980   15.3680   13.9330 C   0  0  0  0  0  3  0  0  0  0  0  0
   15.6940   14.3350   12.9610 C   0  0  0  0  0  2  0  0  0  0  0  0
   16.8830   14.7070   15.2000 C   0  0  0  0  0  2  0  0  0  0  0  0
   15.0970   13.1460   13.7010 C   0  0  0  0  0  2  0  0  0  0  0  0
   17.3240   13.2690   14.9510 C   0  0  0  0  0  2  0  0  0  0  0  0
   16.1590   12.3870   14.4970 C   0  0  0  0  0  2  0  0  0  0  0  0
  1  8  1  0
  2  1  1  0
  3  2  2  0
  4  3  1  0
  4  6  2  0
  5  4  1  0
  6  7  1  0
  7  1  2  0
  8 11  1  1
  8  9  2  0
 10  8  2  0
 11 12  1  0
 13 11  1  0
 14  6  1  0
 14 16  1  0
 15 14  2  0
 16 18  1  0
 16 17  1  0
 18 19  1  0
 19 21  1  0
 20 22  1  0
 20 19  1  0
 22 24  1  0
 23 21  1  0
 24 23  1  0
M  RAD  8   2   2   3   2   7   2  12   2  13   2  18   3  19   2  20   3
M  RAD  4  21   3  22   3  23   3  24   3
M  END
>  <vina_score>  (5) 
-6.5949999999999998

>  <pose_id>  (5) 
5

$$$$
