
     RDKit          3D

 21 22  0  0  0  0  0  0  0  0999 V2000
   23.9200   13.4640   10.4740 C   0  0  0  0  0  1  0  0  0  0  0  0
   22.9510   13.7670   11.5990 C   0  0  0  0  0  0  0  0  0  0  0  0
   22.6630   12.8620   12.5580 C   0  0  0  0  0  3  0  0  0  0  0  0
   22.2820   14.9890   11.5510 N   0  0  0  0  0  0  0  0  0  0  0  0
   22.8840   15.7900   11.3740 H   0  0  0  0  0  0  0  0  0  0  0  0
   20.9690   15.2320   11.0850 C   0  0  0  0  0  0  0  0  0  0  0  0
   20.8160   15.8200    9.8210 C   0  0  0  0  0  3  0  0  0  0  0  0
   19.8170   14.9690   11.8360 C   0  0  0  0  0  3  0  0  0  0  0  0
   19.5490   16.1200    9.3130 C   0  0  0  0  0  3  0  0  0  0  0  0
   18.5430   15.2650   11.3320 C   0  0  0  0  0  0  0  0  0  0  0  0
   18.4070   15.8430   10.0670 C   0  0  0  0  0  0  0  0  0  0  0  0
   17.0500   14.8490   12.4310 Br  0  0  0  0  0  0  0  0  0  0  0  0
   16.8770   16.2380    9.3730 Cl  0  0  0  0  0  0  0  0  0  0  0  0
   23.2860   11.5110   12.6980 C   0  0  0  0  0  0  0  0  0  0  0  0
   22.9760   10.5530   11.9990 O   0  0  0  0  0  0  0  0  0  0  0  0
   24.2960   11.3340   13.7750 C   0  0  0  0  0  0  0  0  0  0  0  0
   25.0010   10.1360   13.9500 C   0  0  0  0  0  3  0  0  0  0  0  0
   24.5110   12.3980   14.6610 C   0  0  0  0  0  3  0  0  0  0  0  0
   25.9330   10.0190   14.9840 C   0  0  0  0  0  3  0  0  0  0  0  0
   25.4440   12.2770   15.6920 C   0  0  0  0  0  3  0  0  0  0  0  0
   26.1570   11.0890   15.8500 C   0  0  0  0  0  3  0  0  0  0  0  0
  1  2  1  0
  2  3  2  0
  3 14  1  0
  4  2  1  0
  5  4  1  0
  6  4  1  0
  6  8  2  0
  7  6  1  0
  9  7  2  0
  9 11  1  0
 10  8  1  0
 10 12  1  0
 11 10  2  0
 13 11  1  0
 14 16  1  0
 15 14  2  0
 16 17  2  0
 16 18  1  0
 17 19  1  0
 18 20  2  0
 19 21  2  0
 20 21  1  0
M  RAD  8   1   2   3   2   7   2   8   2   9   2  17   2  18   2  19   2
M  RAD  2  20   2  21   2
M  END
>  <vina_score>  (1) 
-6.8659999999999997

>  <pose_id>  (1) 
1

$$$$

     RDKit          3D

 21 22  0  0  0  0  0  0  0  0999 V2000
   19.0410   13.1840   15.3280 C   0  0  0  0  0  1  0  0  0  0  0  0
   17.8200   12.9400   16.1920 C   0  0  0  0  0  0  0  0  0  0  0  0
   16.8270   13.8480   16.2980 C   0  0  0  0  0  3  0  0  0  0  0  0
   17.8060   11.7780   16.9600 N   0  0  0  0  0  0  0  0  0  0  0  0
   18.2050   10.9640   16.4980 H   0  0  0  0  0  0  0  0  0  0  0  0
   17.9370   11.6730   18.3640 C   0  0  0  0  0  0  0  0  0  0  0  0
   19.1580   12.0470   18.9420 C   0  0  0  0  0  3  0  0  0  0  0  0
   16.9360   11.1690   19.2020 C   0  0  0  0  0  3  0  0  0  0  0  0
   19.3690   11.9380   20.3190 C   0  0  0  0  0  3  0  0  0  0  0  0
   17.1390   11.0570   20.5850 C   0  0  0  0  0  0  0  0  0  0  0  0
   18.3590   11.4430   21.1460 C   0  0  0  0  0  0  0  0  0  0  0  0
   15.7040   10.3750   21.6280 Br  0  0  0  0  0  0  0  0  0  0  0  0
   18.6900   11.3390   22.8370 Cl  0  0  0  0  0  0  0  0  0  0  0  0
   16.7440   15.1410   15.5550 C   0  0  0  0  0  0  0  0  0  0  0  0
   17.0250   16.2230   16.0560 O   0  0  0  0  0  0  0  0  0  0  0  0
   16.2490   15.0910   14.1530 C   0  0  0  0  0  0  0  0  0  0  0  0
   15.4170   14.0630   13.6900 C   0  0  0  0  0  3  0  0  0  0  0  0
   16.6680   16.0930   13.2670 C   0  0  0  0  0  3  0  0  0  0  0  0
   14.9870   14.0590   12.3610 C   0  0  0  0  0  3  0  0  0  0  0  0
   16.2350   16.0850   11.9410 C   0  0  0  0  0  3  0  0  0  0  0  0
   15.3920   15.0690   11.4900 C   0  0  0  0  0  3  0  0  0  0  0  0
  1  2  1  0
  2  3  2  0
  2  4  1  0
  4  6  1  0
  5  4  1  0
  6  7  1  0
  6  8  2  0
  7  9  2  0
  8 10  1  0
  9 11  1  0
 10 11  2  0
 10 12  1  0
 11 13  1  0
 14 15  2  0
 14  3  1  0
 16 14  1  0
 17 16  2  0
 18 16  1  0
 19 17  1  0
 20 18  2  0
 21 20  1  0
 21 19  2  0
M  RAD  8   1   2   3   2   7   2   8   2   9   2  17   2  18   2  19   2
M  RAD  2  20   2  21   2
M  END
>  <vina_score>  (2) 
-6.7770000000000001

>  <pose_id>  (2) 
2

$$$$

     RDKit          3D

 21 22  0  0  0  0  0  0  0  0999 V2000
   19.8240   11.1960   13.3060 C   0  0  0  0  0  1  0  0  0  0  0  0
   19.7220   12.6410   13.7500 C   0  0  0  0  0  0  0  0  0  0  0  0
   20.8140   13.3830   14.0270 C   0  0  0  0  0  3  0  0  0  0  0  0
   18.4430   13.1530   13.9620 N   0  0  0  0  0  0  0  0  0  0  0  0
   18.2510   13.4190   14.9250 H   0  0  0  0  0  0  0  0  0  0  0  0
   17.6640   13.9180   13.0630 C   0  0  0  0  0  0  0  0  0  0  0  0
   16.2670   13.8300   13.1610 C   0  0  0  0  0  3  0  0  0  0  0  0
   18.2060   14.7150   12.0490 C   0  0  0  0  0  3  0  0  0  0  0  0
   15.4360   14.5320   12.2830 C   0  0  0  0  0  3  0  0  0  0  0  0
   17.3790   15.4240   11.1650 C   0  0  0  0  0  0  0  0  0  0  0  0
   15.9900   15.3320   11.2820 C   0  0  0  0  0  0  0  0  0  0  0  0
   18.2260   16.4890    9.8390 Br  0  0  0  0  0  0  0  0  0  0  0  0
   14.9020   16.1720   10.2380 Cl  0  0  0  0  0  0  0  0  0  0  0  0
   22.2330   12.9390   13.8710 C   0  0  0  0  0  0  0  0  0  0  0  0
   22.8810   12.4330   14.7790 O   0  0  0  0  0  0  0  0  0  0  0  0
   22.8810   13.1770   12.5530 C   0  0  0  0  0  0  0  0  0  0  0  0
   22.5260   14.2530   11.7290 C   0  0  0  0  0  3  0  0  0  0  0  0
   23.8500   12.2630   12.1190 C   0  0  0  0  0  3  0  0  0  0  0  0
   23.1600   14.4260   10.4960 C   0  0  0  0  0  3  0  0  0  0  0  0
   24.4810   12.4410   10.8870 C   0  0  0  0  0  3  0  0  0  0  0  0
   24.1380   13.5240   10.0780 C   0  0  0  0  0  3  0  0  0  0  0  0
  1  2  1  0
  2  4  1  3
  2  3  2  3
  4  5  1  0
  6  7  1  0
  6  4  1  0
  8  6  2  0
  9  7  2  0
 10 11  2  0
 10  8  1  0
 11  9  1  0
 12 10  1  0
 13 11  1  0
 14  3  1  0
 14 15  2  0
 16 14  1  0
 17 16  2  0
 18 16  1  0
 19 17  1  0
 20 18  2  0
 21 19  2  0
 21 20  1  0
M  RAD  8   1   2   3   2   7   2   8   2   9   2  17   2  18   2  19   2
M  RAD  2  20   2  21   2
M  END
>  <vina_score>  (3) 
-6.5149999999999997

>  <pose_id>  (3) 
3

$$$$

     RDKit          3D

 21 22  0  0  0  0  0  0  0  0999 V2000
   24.9030    9.4270   16.5180 C   0  0  0  0  0  1  0  0  0  0  0  0
   23.4950    9.9700   16.3790 C   0  0  0  0  0  0  0  0  0  0  0  0
   23.2420   11.1530   15.7800 C   0  0  0  0  0  3  0  0  0  0  0  0
   22.4710    9.2470   16.9860 N   0  0  0  0  0  0  0  0  0  0  0  0
   22.5720    8.2370   16.9200 H   0  0  0  0  0  0  0  0  0  0  0  0
   21.7350    9.6030   18.1400 C   0  0  0  0  0  0  0  0  0  0  0  0
   22.3160   10.5090   19.0400 C   0  0  0  0  0  3  0  0  0  0  0  0
   20.4840    9.0640   18.4620 C   0  0  0  0  0  3  0  0  0  0  0  0
   21.6600   10.8790   20.2170 C   0  0  0  0  0  3  0  0  0  0  0  0
   19.8190    9.4310   19.6400 C   0  0  0  0  0  0  0  0  0  0  0  0
   20.4080   10.3420   20.5210 C   0  0  0  0  0  0  0  0  0  0  0  0
   18.1180    8.6480   19.9650 Br  0  0  0  0  0  0  0  0  0  0  0  0
   19.6570   10.8470   21.9910 Cl  0  0  0  0  0  0  0  0  0  0  0  0
   24.2540   12.0330   15.1220 C   0  0  0  0  0  0  0  0  0  0  0  0
   25.0040   12.7750   15.7450 O   0  0  0  0  0  0  0  0  0  0  0  0
   24.3030   12.0230   13.6360 C   0  0  0  0  0  0  0  0  0  0  0  0
   24.4390   10.8390   12.9000 C   0  0  0  0  0  3  0  0  0  0  0  0
   24.2480   13.2520   12.9640 C   0  0  0  0  0  3  0  0  0  0  0  0
   24.4880   10.8860   11.5040 C   0  0  0  0  0  3  0  0  0  0  0  0
   24.2970   13.2930   11.5700 C   0  0  0  0  0  3  0  0  0  0  0  0
   24.4130   12.1100   10.8410 C   0  0  0  0  0  3  0  0  0  0  0  0
  2  1  1  0
  2  4  1  0
  3  2  2  0
  4  6  1  0
  5  4  1  0
  6  8  2  0
  6  7  1  0
  7  9  2  0
  8 10  1  0
  9 11  1  0
 10 12  1  0
 10 11  2  0
 11 13  1  0
 14 15  2  0
 14  3  1  0
 16 14  1  0
 17 16  2  0
 18 16  1  0
 19 17  1  0
 20 18  2  0
 21 19  2  0
 21 20  1  0
M  RAD  8   1   2   3   2   7   2   8   2   9   2  17   2  18   2  19   2
M  RAD  2  20   2  21   2
M  END
>  <vina_score>  (4) 
-6.3440000000000003

>  <pose_id>  (4) 
4

$$$$

     RDKit          3D

 21 22  0  0  0  0  0  0  0  0999 V2000
   21.6170   11.2160   20.5210 C   0  0  0  0  0  1  0  0  0  0  0  0
   21.1260   10.2860   19.4310 C   0  0  0  0  0  0  0  0  0  0  0  0
   19.8910   10.3970   18.8980 C   0  0  0  0  0  3  0  0  0  0  0  0
   21.9660    9.2360   19.0640 N   0  0  0  0  0  0  0  0  0  0  0  0
   21.5300    8.3170   19.0980 H   0  0  0  0  0  0  0  0  0  0  0  0
   23.0080    9.2630   18.1080 C   0  0  0  0  0  0  0  0  0  0  0  0
   23.3080   10.4870   17.4940 C   0  0  0  0  0  3  0  0  0  0  0  0
   23.7200    8.1270   17.7020 C   0  0  0  0  0  3  0  0  0  0  0  0
   24.3020   10.5800   16.5150 C   0  0  0  0  0  3  0  0  0  0  0  0
   24.7190    8.2120   16.7220 C   0  0  0  0  0  0  0  0  0  0  0  0
   25.0120    9.4420   16.1270 C   0  0  0  0  0  0  0  0  0  0  0  0
   25.6320    6.6110   16.2630 Br  0  0  0  0  0  0  0  0  0  0  0  0
   26.2270    9.6340   14.9160 Cl  0  0  0  0  0  0  0  0  0  0  0  0
   18.8900   11.4550   19.2300 C   0  0  0  0  0  0  0  0  0  0  0  0
   18.7400   12.4710   18.5620 O   0  0  0  0  0  0  0  0  0  0  0  0
   18.0810   11.2660   20.4640 C   0  0  0  0  0  0  0  0  0  0  0  0
   16.9430   10.4480   20.4940 C   0  0  0  0  0  3  0  0  0  0  0  0
   18.4590   11.9650   21.6180 C   0  0  0  0  0  3  0  0  0  0  0  0
   16.2140   10.3100   21.6770 C   0  0  0  0  0  3  0  0  0  0  0  0
   17.7280   11.8230   22.7970 C   0  0  0  0  0  3  0  0  0  0  0  0
   16.6070   10.9930   22.8260 C   0  0  0  0  0  3  0  0  0  0  0  0
  2  1  1  0
  3 14  1  0
  3  2  2  0
  4  5  1  0
  4  2  1  0
  6  4  1  0
  7  6  1  0
  8  6  2  0
  9  7  2  0
 10  8  1  0
 11  9  1  0
 11 10  2  0
 12 10  1  0
 13 11  1  0
 14 16  1  0
 15 14  2  0
 16 17  2  0
 16 18  1  0
 17 19  1  0
 18 20  2  0
 19 21  2  0
 20 21  1  0
M  RAD  8   1   2   3   2   7   2   8   2   9   2  17   2  18   2  19   2
M  RAD  2  20   2  21   2
M  END
>  <vina_score>  (5) 
-6.319

>  <pose_id>  (5) 
5

$$$$
