
     RDKit          3D

 20 20  0  0  0  0  0  0  0  0999 V2000
   21.7790   10.1220   17.6410 C   0  0  0  0  0  2  0  0  0  0  0  0
   20.8830    8.8790   17.5450 C   0  0  0  0  0  2  0  0  0  0  0  0
   19.4820    9.1920   17.8970 N   0  0  0  0  0  0  0  0  0  0  0  0
   18.7330    7.9560   18.1960 C   0  0  0  0  0  2  0  0  0  0  0  0
   18.4650    7.7960   19.6890 C   0  0  0  0  0  1  0  0  0  0  0  0
   18.8270    9.9430   16.8070 C   0  0  0  0  0  2  0  0  0  0  0  0
   18.1090    9.0190   15.8270 C   0  0  0  0  0  1  0  0  0  0  0  0
   22.4830   10.1760   18.9930 C   0  0  0  0  0  2  0  0  0  0  0  0
   21.5720    9.8690   20.0780 N   0  0  0  0  0  0  0  0  0  0  0  0
   20.9370   10.8800   20.7720 C   0  0  0  0  0  0  0  0  0  0  0  0
   21.1780   12.0700   20.6020 O   0  0  0  0  0  0  0  0  0  0  0  0
   21.1450    8.9500   20.0920 H   0  0  0  0  0  0  0  0  0  0  0  0
   19.9200   10.3590   21.7650 C   0  0  0  0  0  2  0  0  0  0  0  0
   18.8830   11.4200   22.1190 C   0  0  0  0  0  2  0  0  0  0  0  0
   17.5630   11.1470   21.4400 C   0  0  0  0  0  0  0  0  0  0  0  0
   16.4630   10.6960   22.1820 C   0  0  0  0  0  3  0  0  0  0  0  0
   17.4300   11.3100   20.0550 C   0  0  0  0  0  3  0  0  0  0  0  0
   15.2490   10.4220   21.5500 C   0  0  0  0  0  3  0  0  0  0  0  0
   16.2150   11.0350   19.4250 C   0  0  0  0  0  3  0  0  0  0  0  0
   15.1260   10.5920   20.1720 C   0  0  0  0  0  3  0  0  0  0  0  0
  1  8  1  0
  2  1  1  0
  2  3  1  0
  3  4  1  0
  4  5  1  0
  6  3  1  0
  7  6  1  0
  8  9  1  0
  9 12  1  0
  9 10  1  0
 10 13  1  0
 11 10  2  0
 13 14  1  0
 15 14  1  0
 15 16  2  0
 17 15  1  0
 18 16  1  0
 19 17  2  0
 19 20  1  0
 20 18  2  0
M  RAD  8   1   3   2   3   4   3   5   2   6   3   7   2   8   3  13   3
M  RAD  6  14   3  16   2  17   2  18   2  19   2  20   2
M  END
>  <vina_score>  (1) 
-4.992

>  <pose_id>  (1) 
1

$$$$

     RDKit          3D

 20 20  0  0  0  0  0  0  0  0999 V2000
   24.0910    9.9100   12.0720 C   0  0  0  0  0  2  0  0  0  0  0  0
   24.5330   10.6770   13.3250 C   0  0  0  0  0  2  0  0  0  0  0  0
   23.4090   10.8790   14.2630 N   0  0  0  0  0  0  0  0  0  0  0  0
   22.1490   10.3800   13.6770 C   0  0  0  0  0  2  0  0  0  0  0  0
   21.1980   11.5170   13.3120 C   0  0  0  0  0  1  0  0  0  0  0  0
   23.2820   12.3040   14.6270 C   0  0  0  0  0  2  0  0  0  0  0  0
   24.4900   13.1190   14.1720 C   0  0  0  0  0  1  0  0  0  0  0  0
   24.4900   10.6640   10.8080 C   0  0  0  0  0  2  0  0  0  0  0  0
   23.7400   11.8970   10.6680 N   0  0  0  0  0  0  0  0  0  0  0  0
   24.3880   13.0890   10.4100 C   0  0  0  0  0  0  0  0  0  0  0  0
   25.6090   13.2050   10.3950 O   0  0  0  0  0  0  0  0  0  0  0  0
   22.7620   11.8310   10.4150 H   0  0  0  0  0  0  0  0  0  0  0  0
   23.4290   14.2330   10.1530 C   0  0  0  0  0  2  0  0  0  0  0  0
   22.6500   14.6080   11.4090 C   0  0  0  0  0  2  0  0  0  0  0  0
   21.2380   15.0230   11.0760 C   0  0  0  0  0  0  0  0  0  0  0  0
   20.9720   15.7870    9.9320 C   0  0  0  0  0  3  0  0  0  0  0  0
   20.1770   14.6750   11.9230 C   0  0  0  0  0  3  0  0  0  0  0  0
   19.6690   16.1890    9.6370 C   0  0  0  0  0  3  0  0  0  0  0  0
   18.8740   15.0780   11.6260 C   0  0  0  0  0  3  0  0  0  0  0  0
   18.6210   15.8330   10.4840 C   0  0  0  0  0  3  0  0  0  0  0  0
  1  2  1  0
  2  3  1  0
  3  6  1  0
  4  3  1  0
  5  4  1  0
  7  6  1  0
  8  1  1  0
  9  8  1  0
 10  9  1  0
 11 10  2  0
 12  9  1  0
 13 10  1  0
 13 14  1  0
 15 14  1  0
 15 17  1  0
 16 15  2  0
 18 16  1  0
 18 20  2  0
 19 17  2  0
 20 19  1  0
M  RAD  8   1   3   2   3   4   3   5   2   6   3   7   2   8   3  13   3
M  RAD  6  14   3  16   2  17   2  18   2  19   2  20   2
M  END
>  <vina_score>  (2) 
-4.9829999999999997

>  <pose_id>  (2) 
2

$$$$

     RDKit          3D

 20 20  0  0  0  0  0  0  0  0999 V2000
   17.1490   15.4200   11.4520 C   0  0  0  0  0  2  0  0  0  0  0  0
   17.5200   14.9830   12.8750 C   0  0  0  0  0  2  0  0  0  0  0  0
   17.8120   13.5350   12.9400 N   0  0  0  0  0  0  0  0  0  0  0  0
   16.6370   12.7910   13.4350 C   0  0  0  0  0  2  0  0  0  0  0  0
   15.8470   13.5900   14.4670 C   0  0  0  0  0  1  0  0  0  0  0  0
   18.9870   13.2780   13.7960 C   0  0  0  0  0  2  0  0  0  0  0  0
   20.1350   12.6430   13.0150 C   0  0  0  0  0  1  0  0  0  0  0  0
   18.2560   16.2730   10.8430 C   0  0  0  0  0  2  0  0  0  0  0  0
   19.5570   15.9080   11.3700 N   0  0  0  0  0  0  0  0  0  0  0  0
   20.6500   15.8000   10.5340 C   0  0  0  0  0  0  0  0  0  0  0  0
   20.5780   15.8890    9.3130 O   0  0  0  0  0  0  0  0  0  0  0  0
   19.7330   16.0750   12.3540 H   0  0  0  0  0  0  0  0  0  0  0  0
   21.9410   15.5540   11.2870 C   0  0  0  0  0  2  0  0  0  0  0  0
   22.8820   14.6390   10.5100 C   0  0  0  0  0  2  0  0  0  0  0  0
   23.4610   13.5650   11.3980 C   0  0  0  0  0  0  0  0  0  0  0  0
   23.8650   12.3370   10.8570 C   0  0  0  0  0  3  0  0  0  0  0  0
   23.5730   13.7700   12.7790 C   0  0  0  0  0  3  0  0  0  0  0  0
   24.3790   11.3360   11.6820 C   0  0  0  0  0  3  0  0  0  0  0  0
   24.0880   12.7680   13.6030 C   0  0  0  0  0  3  0  0  0  0  0  0
   24.4910   11.5520   13.0550 C   0  0  0  0  0  3  0  0  0  0  0  0
  1  2  1  0
  2  3  1  0
  3  4  1  0
  3  6  1  0
  4  5  1  0
  7  6  1  0
  8  9  1  0
  8  1  1  0
  9 12  1  0
 10 13  1  0
 10  9  1  0
 11 10  2  0
 14 13  1  0
 14 15  1  0
 15 17  1  0
 16 15  2  0
 16 18  1  0
 17 19  2  0
 18 20  2  0
 20 19  1  0
M  RAD  8   1   3   2   3   4   3   5   2   6   3   7   2   8   3  13   3
M  RAD  6  14   3  16   2  17   2  18   2  19   2  20   2
M  END
>  <vina_score>  (3) 
-4.8659999999999997

>  <pose_id>  (3) 
3

$$$$

     RDKit          3D

 20 20  0  0  0  0  0  0  0  0999 V2000
   17.8000   15.5160   13.1500 C   0  0  0  0  0  2  0  0  0  0  0  0
   16.3850   16.0880   13.3050 C   0  0  0  0  0  2  0  0  0  0  0  0
   15.5290   15.2040   14.1240 N   0  0  0  0  0  0  0  0  0  0  0  0
   16.1820   14.8980   15.4120 C   0  0  0  0  0  2  0  0  0  0  0  0
   15.5340   15.6450   16.5740 C   0  0  0  0  0  1  0  0  0  0  0  0
   15.2160   13.9590   13.3940 C   0  0  0  0  0  2  0  0  0  0  0  0
   15.5690   12.7160   14.2060 C   0  0  0  0  0  1  0  0  0  0  0  0
   18.2610   15.6010   11.6980 C   0  0  0  0  0  2  0  0  0  0  0  0
   19.7080   15.6140   11.6020 N   0  0  0  0  0  0  0  0  0  0  0  0
   20.3300   15.7770   10.3800 C   0  0  0  0  0  0  0  0  0  0  0  0
   19.7260   15.8070    9.3130 O   0  0  0  0  0  0  0  0  0  0  0  0
   20.2360   15.8510   12.4330 H   0  0  0  0  0  0  0  0  0  0  0  0
   21.8330   15.9100   10.5020 C   0  0  0  0  0  2  0  0  0  0  0  0
   22.3190   15.5590   11.9050 C   0  0  0  0  0  2  0  0  0  0  0  0
   23.0640   14.2470   11.9160 C   0  0  0  0  0  0  0  0  0  0  0  0
   23.2940   13.5710   13.1210 C   0  0  0  0  0  3  0  0  0  0  0  0
   23.5610   13.7020   10.7250 C   0  0  0  0  0  3  0  0  0  0  0  0
   24.0030   12.3680   13.1340 C   0  0  0  0  0  3  0  0  0  0  0  0
   24.2700   12.5000   10.7380 C   0  0  0  0  0  3  0  0  0  0  0  0
   24.4890   11.8330   11.9420 C   0  0  0  0  0  3  0  0  0  0  0  0
  1  2  1  0
  2  3  1  0
  3  4  1  0
  4  5  1  0
  6  3  1  0
  6  7  1  0
  8  1  1  0
  9  8  1  0
  9 12  1  0
 10 13  1  0
 10  9  1  0
 11 10  2  0
 13 14  1  0
 14 15  1  0
 15 16  2  0
 16 18  1  0
 17 19  2  0
 17 15  1  0
 19 20  1  0
 20 18  2  0
M  RAD  8   1   3   2   3   4   3   5   2   6   3   7   2   8   3  13   3
M  RAD  6  14   3  16   2  17   2  18   2  19   2  20   2
M  END
>  <vina_score>  (4) 
-4.7670000000000003

>  <pose_id>  (4) 
4

$$$$

     RDKit          3D

 20 20  0  0  0  0  0  0  0  0999 V2000
   23.8600   10.7180   14.1480 C   0  0  0  0  0  2  0  0  0  0  0  0
   24.3490    9.3710   14.6960 C   0  0  0  0  0  2  0  0  0  0  0  0
   24.9190    9.5120   16.0530 N   0  0  0  0  0  0  0  0  0  0  0  0
   26.3680    9.2270   16.0390 C   0  0  0  0  0  2  0  0  0  0  0  0
   26.7220    8.0180   16.8990 C   0  0  0  0  0  1  0  0  0  0  0  0
   24.2260    8.6210   17.0050 C   0  0  0  0  0  2  0  0  0  0  0  0
   23.0800    9.3310   17.7200 C   0  0  0  0  0  1  0  0  0  0  0  0
   24.3080   10.9080   12.7030 C   0  0  0  0  0  2  0  0  0  0  0  0
   23.8440   12.1730   12.1670 N   0  0  0  0  0  0  0  0  0  0  0  0
   24.3200   12.6410   10.9580 C   0  0  0  0  0  0  0  0  0  0  0  0
   25.2200   12.0960   10.3300 O   0  0  0  0  0  0  0  0  0  0  0  0
   22.9500   12.5240   12.4880 H   0  0  0  0  0  0  0  0  0  0  0  0
   23.6130   13.9000   10.4990 C   0  0  0  0  0  2  0  0  0  0  0  0
   22.8660   14.5770   11.6440 C   0  0  0  0  0  2  0  0  0  0  0  0
   21.4830   15.0050   11.2190 C   0  0  0  0  0  0  0  0  0  0  0  0
   20.3610   14.6330   11.9730 C   0  0  0  0  0  3  0  0  0  0  0  0
   21.2990   15.7540   10.0500 C   0  0  0  0  0  3  0  0  0  0  0  0
   19.0800   15.0110   11.5680 C   0  0  0  0  0  3  0  0  0  0  0  0
   20.0170   16.1310    9.6460 C   0  0  0  0  0  3  0  0  0  0  0  0
   18.9090   15.7600   10.4040 C   0  0  0  0  0  3  0  0  0  0  0  0
  1  2  1  0
  2  3  1  0
  3  6  1  0
  4  3  1  0
  4  5  1  0
  6  7  1  0
  8  1  1  0
  9 12  1  0
  9  8  1  0
 10  9  1  0
 11 10  2  0
 13 10  1  0
 13 14  1  0
 15 14  1  0
 15 16  2  0
 17 15  1  0
 18 16  1  0
 19 17  2  0
 19 20  1  0
 20 18  2  0
M  RAD  8   1   3   2   3   4   3   5   2   6   3   7   2   8   3  13   3
M  RAD  6  14   3  16   2  17   2  18   2  19   2  20   2
M  END
>  <vina_score>  (5) 
-4.6429999999999998

>  <pose_id>  (5) 
5

$$$$
