
     RDKit          3D

 23 25  0  0  0  0  0  0  0  0999 V2000
   19.3910   12.2300   13.6460 C   0  0  0  0  0  2  0  0  0  0  0  0
   20.6500   11.8370   14.2810 N   0  0  0  0  0  0  0  0  0  0  0  0
   20.6400   10.8630   14.5880 H   0  0  0  0  0  0  0  0  0  0  0  0
   21.9180   12.2730   13.9120 C   0  0  0  0  0  0  0  0  0  0  0  0
   23.2380   13.6080   12.1440 C   0  0  1  0  0  0  0  0  0  0  0  0
   24.5150   13.0950   12.8290 C   0  0  0  0  0  2  0  0  0  0  0  0
   22.0710   12.6410   12.4440 C   0  0  0  0  0  2  0  0  0  0  0  0
   24.3020   12.8020   14.2960 C   0  0  0  0  0  0  0  0  0  0  0  0
   25.2230   12.8630   15.1090 O   0  0  0  0  0  0  0  0  0  0  0  0
   22.9630   12.3670   14.7530 C   0  0  0  0  0  3  0  0  0  0  0  0
   22.9040   15.0340   12.6260 C   0  0  0  0  0  1  0  0  0  0  0  0
   23.4690   13.6610   10.6220 C   0  0  0  0  0  1  0  0  0  0  0  0
   19.0130   13.6760   13.9950 C   0  0  0  0  0  2  0  0  0  0  0  0
   18.1020   14.3150   12.9880 C   0  0  0  0  0  0  0  0  0  0  0  0
   16.7260   14.4020   13.0690 C   0  0  0  0  0  3  0  0  0  0  0  0
   18.4870   14.9500   11.7620 C   0  0  0  0  0  0  0  0  0  0  0  0
   16.2700   15.0620   11.9600 N   0  0  0  0  0  0  0  0  0  0  0  0
   19.7220   15.1810   11.1210 C   0  0  0  0  0  3  0  0  0  0  0  0
   17.3220   15.4130   11.1480 C   0  0  0  0  0  0  0  0  0  0  0  0
   19.7470   15.8630    9.8990 C   0  0  0  0  0  3  0  0  0  0  0  0
   17.3310   16.0960    9.9260 C   0  0  0  0  0  3  0  0  0  0  0  0
   18.5670   16.3140    9.3130 C   0  0  0  0  0  3  0  0  0  0  0  0
   15.3000   15.2660   11.7610 H   0  0  0  0  0  0  0  0  0  0  0  0
  1 13  1  0
  1  2  1  0
  2  3  1  0
  4  2  1  0
  4 10  2  0
  5  7  1  0
  5 11  1  1
  5  6  1  0
  6  8  1  0
  7  4  1  0
  8 10  1  0
  8  9  2  0
 12  5  1  0
 14 15  2  0
 14 13  1  0
 16 14  1  0
 17 15  1  0
 18 16  2  0
 19 16  1  0
 19 17  1  0
 20 18  1  0
 21 19  2  0
 22 20  2  0
 22 21  1  0
 23 17  1  0
M  END
>  <vina_score>  (1) 
-6.8330000000000002

>  <pose_id>  (1) 
1

$$$$

     RDKit          3D

 23 25  0  0  0  0  0  0  0  0999 V2000
   18.6350   12.1370   16.8820 C   0  0  0  0  0  2  0  0  0  0  0  0
   17.6710   12.1790   15.7820 N   0  0  0  0  0  0  0  0  0  0  0  0
   17.0900   11.3400   15.7460 H   0  0  0  0  0  0  0  0  0  0  0  0
   17.0120   13.3120   15.3200 C   0  0  0  0  0  0  0  0  0  0  0  0
   16.2910   14.5940   13.2020 C   0  0  1  0  0  0  0  0  0  0  0  0
   15.8730   15.7400   14.1370 C   0  0  0  0  0  2  0  0  0  0  0  0
   17.3620   13.7270   13.8990 C   0  0  0  0  0  2  0  0  0  0  0  0
   15.4870   15.2480   15.5130 C   0  0  0  0  0  0  0  0  0  0  0  0
   14.6940   15.8660   16.2230 O   0  0  0  0  0  0  0  0  0  0  0  0
   16.1320   14.0260   16.0440 C   0  0  0  0  0  3  0  0  0  0  0  0
   15.0650   13.7410   12.8150 C   0  0  0  0  0  1  0  0  0  0  0  0
   16.8840   15.1880   11.9110 C   0  0  0  0  0  1  0  0  0  0  0  0
   18.2960   11.0260   17.8840 C   0  0  0  0  0  2  0  0  0  0  0  0
   18.7350   11.3310   19.2860 C   0  0  0  0  0  0  0  0  0  0  0  0
   19.9770   11.7980   19.6720 C   0  0  0  0  0  3  0  0  0  0  0  0
   17.9540   11.1940   20.4800 C   0  0  0  0  0  0  0  0  0  0  0  0
   19.9750   11.9550   21.0320 N   0  0  0  0  0  0  0  0  0  0  0  0
   16.6350   10.7710   20.7490 C   0  0  0  0  0  3  0  0  0  0  0  0
   18.7520   11.6000   21.5510 C   0  0  0  0  0  0  0  0  0  0  0  0
   16.1660   10.7690   22.0680 C   0  0  0  0  0  3  0  0  0  0  0  0
   18.2990   11.6040   22.8750 C   0  0  0  0  0  3  0  0  0  0  0  0
   16.9880   11.1820   23.1140 C   0  0  0  0  0  3  0  0  0  0  0  0
   20.7560   12.2850   21.5820 H   0  0  0  0  0  0  0  0  0  0  0  0
  1 13  1  0
  2  1  1  0
  3  2  1  0
  4  2  1  0
  4 10  2  0
  5  7  1  0
  5  6  1  0
  6  8  1  0
  7  4  1  0
  8 10  1  0
  8  9  2  0
  5 11  1  6
 12  5  1  0
 13 14  1  0
 14 15  2  0
 14 16  1  0
 15 17  1  0
 16 18  2  0
 16 19  1  0
 17 19  1  0
 17 23  1  0
 18 20  1  0
 19 21  2  0
 20 22  2  0
 21 22  1  0
M  END
>  <vina_score>  (2) 
-6.5229999999999997

>  <pose_id>  (2) 
2

$$$$

     RDKit          3D

 23 25  0  0  0  0  0  0  0  0999 V2000
   18.6110   11.9250   16.8480 C   0  0  0  0  0  2  0  0  0  0  0  0
   17.6850   11.8510   15.7170 N   0  0  0  0  0  0  0  0  0  0  0  0
   16.9540   11.1520   15.8620 H   0  0  0  0  0  0  0  0  0  0  0  0
   17.2590   12.9250   14.9420 C   0  0  0  0  0  0  0  0  0  0  0  0
   16.0610   15.2070   15.0120 C   0  0  1  0  0  0  0  0  0  0  0  0
   16.0760   15.1700   13.4750 C   0  0  0  0  0  2  0  0  0  0  0  0
   16.1540   13.7670   15.5620 C   0  0  0  0  0  2  0  0  0  0  0  0
   17.2310   14.3610   12.9310 C   0  0  0  0  0  0  0  0  0  0  0  0
   17.7140   14.5860   11.8220 O   0  0  0  0  0  0  0  0  0  0  0  0
   17.7490   13.2260   13.7280 C   0  0  0  0  0  3  0  0  0  0  0  0
   17.2260   16.0690   15.5400 C   0  0  0  0  0  1  0  0  0  0  0  0
   14.7430   15.8450   15.4880 C   0  0  0  0  0  1  0  0  0  0  0  0
   18.2930   10.8580   17.9040 C   0  0  0  0  0  2  0  0  0  0  0  0
   18.7140   11.2470   19.2910 C   0  0  0  0  0  0  0  0  0  0  0  0
   19.9420   11.7610   19.6590 C   0  0  0  0  0  3  0  0  0  0  0  0
   17.9270   11.1570   20.4850 C   0  0  0  0  0  0  0  0  0  0  0  0
   19.9260   11.9900   21.0090 N   0  0  0  0  0  0  0  0  0  0  0  0
   16.6150   10.7200   20.7670 C   0  0  0  0  0  3  0  0  0  0  0  0
   18.7070   11.6370   21.5380 C   0  0  0  0  0  0  0  0  0  0  0  0
   16.1350   10.7780   22.0810 C   0  0  0  0  0  3  0  0  0  0  0  0
   18.2430   11.7010   22.8570 C   0  0  0  0  0  3  0  0  0  0  0  0
   16.9400   11.2630   23.1090 C   0  0  0  0  0  3  0  0  0  0  0  0
   20.6960   12.3660   21.5460 H   0  0  0  0  0  0  0  0  0  0  0  0
  1 13  1  0
  2  3  1  0
  2  1  1  0
  4  7  1  0
  4  2  1  0
  5 12  1  6
  5 11  1  0
  5  7  1  0
  6  5  1  0
  8  6  1  0
  8 10  1  0
  9  8  2  0
 10  4  2  0
 13 14  1  0
 14 15  2  0
 14 16  1  0
 15 17  1  0
 16 18  2  0
 16 19  1  0
 17 19  1  0
 17 23  1  0
 18 20  1  0
 19 21  2  0
 20 22  2  0
 21 22  1  0
M  END
>  <vina_score>  (3) 
-6.4240000000000004

>  <pose_id>  (3) 
3

$$$$

     RDKit          3D

 23 25  0  0  0  0  0  0  0  0999 V2000
   21.7830    9.3730   18.1020 C   0  0  0  0  0  2  0  0  0  0  0  0
   22.0190   10.5110   17.2120 N   0  0  0  0  0  0  0  0  0  0  0  0
   21.6410   11.3810   17.5910 H   0  0  0  0  0  0  0  0  0  0  0  0
   23.1490   10.7100   16.4260 C   0  0  0  0  0  0  0  0  0  0  0  0
   23.9700   11.2260   14.0370 C   0  0  1  0  0  0  0  0  0  0  0  0
   25.3890   10.9320   14.5490 C   0  0  0  0  0  2  0  0  0  0  0  0
   22.9400   10.5040   14.9340 C   0  0  0  0  0  2  0  0  0  0  0  0
   25.5360   11.2120   16.0270 C   0  0  0  0  0  0  0  0  0  0  0  0
   26.6200   11.5170   16.5240 O   0  0  0  0  0  0  0  0  0  0  0  0
   24.3570   11.0490   16.9080 C   0  0  0  0  0  3  0  0  0  0  0  0
   23.7070   12.7450   14.0200 C   0  0  0  0  0  1  0  0  0  0  0  0
   23.8360   10.7030   12.5950 C   0  0  0  0  0  1  0  0  0  0  0  0
   20.3430    9.3610   18.6290 C   0  0  0  0  0  2  0  0  0  0  0  0
   20.1710   10.1110   19.9180 C   0  0  0  0  0  0  0  0  0  0  0  0
   21.1620   10.7730   20.6170 C   0  0  0  0  0  3  0  0  0  0  0  0
   18.9560   10.2790   20.6590 C   0  0  0  0  0  0  0  0  0  0  0  0
   20.6000   11.3340   21.7330 N   0  0  0  0  0  0  0  0  0  0  0  0
   17.6250    9.8500   20.4750 C   0  0  0  0  0  3  0  0  0  0  0  0
   19.2550   11.0530   21.7810 C   0  0  0  0  0  0  0  0  0  0  0  0
   16.6480   10.2090   21.4110 C   0  0  0  0  0  3  0  0  0  0  0  0
   18.2900   11.4210   22.7270 C   0  0  0  0  0  3  0  0  0  0  0  0
   16.9790   10.9840   22.5190 C   0  0  0  0  0  3  0  0  0  0  0  0
   21.0970   11.8770   22.4260 H   0  0  0  0  0  0  0  0  0  0  0  0
  1 13  1  0
  2  3  1  0
  2  1  1  0
  4 10  2  0
  4  2  1  0
  5  6  1  0
  5  7  1  0
  6  8  1  0
  7  4  1  0
  8  9  2  0
  8 10  1  0
  5 11  1  6
 12  5  1  0
 13 14  1  0
 14 15  2  0
 14 16  1  0
 15 17  1  0
 16 19  1  0
 17 19  1  0
 17 23  1  0
 18 16  2  0
 18 20  1  0
 19 21  2  0
 20 22  2  0
 22 21  1  0
M  END
>  <vina_score>  (4) 
-6.4050000000000002

>  <pose_id>  (4) 
4

$$$$
