
     RDKit          3D

 22 25  0  0  1  0  0  0  0  0999 V2000
   19.0100   13.6970   15.7440 O   0  0  0  0  0  0  0  0  0  0  0  0
   19.3710   14.2590   14.7130 C   0  0  0  0  0  0  0  0  0  0  0  0
   20.7520   14.8330   14.5490 C   0  0  0  0  0  2  0  0  0  0  0  0
   21.2410   14.7600   13.1050 C   0  0  0  0  0  3  0  0  0  0  0  0
   20.1680   15.2110   12.1360 C   0  0  0  0  0  0  0  0  0  0  0  0
   20.5270   15.7310   10.8890 C   0  0  0  0  0  3  0  0  0  0  0  0
   19.5440   16.0850    9.9670 C   0  0  0  0  0  3  0  0  0  0  0  0
   18.1840   15.9230   10.2640 C   0  0  0  0  0  0  0  0  0  0  0  0
   17.2150   16.2830    9.3130 C   0  0  0  0  0  3  0  0  0  0  0  0
   15.8550   16.1350    9.5800 C   0  0  0  0  0  3  0  0  0  0  0  0
   15.4470   15.6280   10.8050 C   0  0  0  0  0  3  0  0  0  0  0  0
   16.3980   15.2640   11.7620 C   0  0  0  0  0  3  0  0  0  0  0  0
   17.7900   15.3960   11.5200 C   0  0  0  0  0  0  0  0  0  0  0  0
   18.8080   15.0470   12.4510 C   0  0  0  0  0  0  0  0  0  0  0  0
   18.4840   14.4880   13.6990 N   0  0  0  0  0  0  0  0  0  0  0  0
   17.5370   14.1980   13.8990 H   0  0  0  0  0  0  0  0  0  0  0  0
   21.7830   13.3830   12.7650 C   0  0  0  0  0  0  0  0  0  0  0  0
   21.2740   12.1330   13.0760 C   0  0  0  0  0  3  0  0  0  0  0  0
   23.2450   13.2440   11.8670 S   0  0  0  0  0  0  0  0  0  0  0  0
   22.0850   11.0700   12.5760 C   0  0  0  0  0  3  0  0  0  0  0  0
   23.1760   11.5540   11.9050 C   0  0  0  0  0  0  0  0  0  0  0  0
   24.4960   10.4370   11.0920 Br  0  0  0  0  0  0  0  0  0  0  0  0
  2  1  2  0
  3  2  1  0
  4 17  1  0
  4  3  1  0
  5 14  2  0
  5  4  1  0
  6  5  1  0
  7  8  1  0
  7  6  2  0
  8 13  1  0
  9 10  1  0
  9  8  2  0
 10 11  2  0
 11 12  1  0
 13 12  2  0
 13 14  1  0
 14 15  1  0
 15 16  1  0
 15  2  1  0
 17 18  2  0
 19 21  1  0
 19 17  1  0
 20 18  1  0
 21 20  2  0
 22 21  1  0
M  RAD  8   3   3   4   2   6   2   7   2   9   2  10   2  11   2  12   2
M  RAD  2  18   2  20   2
M  END
>  <vina_score>  (1) 
-7.4470000000000001

>  <pose_id>  (1) 
1

$$$$

     RDKit          3D

 22 25  0  0  1  0  0  0  0  0999 V2000
   16.0680   13.0430   15.7800 O   0  0  0  0  0  0  0  0  0  0  0  0
   16.9370   13.5140   15.0510 C   0  0  0  0  0  0  0  0  0  0  0  0
   18.3660   13.6710   15.4980 C   0  0  0  0  0  2  0  0  0  0  0  0
   19.3530   13.5120   14.3450 C   0  0  0  0  0  3  0  0  0  0  0  0
   18.9040   14.2880   13.1240 C   0  0  0  0  0  0  0  0  0  0  0  0
   19.8470   14.7270   12.1900 C   0  0  0  0  0  3  0  0  0  0  0  0
   19.4360   15.3830   11.0310 C   0  0  0  0  0  3  0  0  0  0  0  0
   18.0770   15.6080   10.7750 C   0  0  0  0  0  0  0  0  0  0  0  0
   17.6900   16.2670    9.5960 C   0  0  0  0  0  3  0  0  0  0  0  0
   16.3470   16.5080    9.3130 C   0  0  0  0  0  3  0  0  0  0  0  0
   15.3720   16.0960   10.2110 C   0  0  0  0  0  3  0  0  0  0  0  0
   15.7400   15.4390   11.3880 C   0  0  0  0  0  3  0  0  0  0  0  0
   17.0970   15.1730   11.7020 C   0  0  0  0  0  0  0  0  0  0  0  0
   17.5380   14.5120   12.8830 C   0  0  0  0  0  0  0  0  0  0  0  0
   16.6150   14.0250   13.8260 N   0  0  0  0  0  0  0  0  0  0  0  0
   15.6270   14.0140   13.6140 H   0  0  0  0  0  0  0  0  0  0  0  0
   19.6210   12.0510   14.0330 C   0  0  0  0  0  0  0  0  0  0  0  0
   18.8010   11.1140   13.4260 C   0  0  0  0  0  3  0  0  0  0  0  0
   21.1360   11.3550   14.4620 S   0  0  0  0  0  0  0  0  0  0  0  0
   19.4200    9.8320   13.3150 C   0  0  0  0  0  3  0  0  0  0  0  0
   20.6850    9.8470   13.8420 C   0  0  0  0  0  0  0  0  0  0  0  0
   21.8300    8.3180   13.8780 Br  0  0  0  0  0  0  0  0  0  0  0  0
  2  3  1  0
  2  1  2  0
  4 17  1  0
  4  3  1  0
  5  4  1  0
  6  5  1  0
  7  6  2  0
  8  7  1  0
  8 13  1  0
  9  8  2  0
 10  9  1  0
 10 11  2  0
 11 12  1  0
 12 13  2  0
 13 14  1  0
 14  5  2  0
 14 15  1  0
 15  2  1  0
 16 15  1  0
 17 19  1  0
 18 17  2  0
 20 18  1  0
 20 21  2  0
 21 22  1  0
 21 19  1  0
M  RAD  8   3   3   4   2   6   2   7   2   9   2  10   2  11   2  12   2
M  RAD  2  18   2  20   2
M  END
>  <vina_score>  (2) 
-7.3330000000000002

>  <pose_id>  (2) 
2

$$$$

     RDKit          3D

 22 25  0  0  1  0  0  0  0  0999 V2000
   16.6220    7.5530   17.4880 O   0  0  0  0  0  0  0  0  0  0  0  0
   17.5190    8.0270   18.1810 C   0  0  0  0  0  0  0  0  0  0  0  0
   18.9610    7.6300   18.0140 C   0  0  0  0  0  2  0  0  0  0  0  0
   19.9170    8.7740   18.3380 C   0  0  0  0  0  3  0  0  0  0  0  0
   19.5210    9.4780   19.6190 C   0  0  0  0  0  0  0  0  0  0  0  0
   20.4860   10.1520   20.3730 C   0  0  0  0  0  3  0  0  0  0  0  0
   20.1170   10.8580   21.5170 C   0  0  0  0  0  3  0  0  0  0  0  0
   18.7790   10.9130   21.9290 C   0  0  0  0  0  0  0  0  0  0  0  0
   18.4350   11.6370   23.0830 C   0  0  0  0  0  3  0  0  0  0  0  0
   17.1130   11.7100   23.5200 C   0  0  0  0  0  3  0  0  0  0  0  0
   16.1180   11.0540   22.8080 C   0  0  0  0  0  3  0  0  0  0  0  0
   16.4440   10.3300   21.6580 C   0  0  0  0  0  3  0  0  0  0  0  0
   17.7770   10.2420   21.1830 C   0  0  0  0  0  0  0  0  0  0  0  0
   18.1750    9.5210   20.0230 C   0  0  0  0  0  0  0  0  0  0  0  0
   17.2260    8.8630   19.2210 N   0  0  0  0  0  0  0  0  0  0  0  0
   16.2380    9.0060   19.3770 H   0  0  0  0  0  0  0  0  0  0  0  0
   20.0560    9.7360   17.1720 C   0  0  0  0  0  0  0  0  0  0  0  0
   19.3510   10.8960   16.8950 C   0  0  0  0  0  3  0  0  0  0  0  0
   21.2320    9.4260   15.9530 S   0  0  0  0  0  0  0  0  0  0  0  0
   19.7800   11.5240   15.6870 C   0  0  0  0  0  3  0  0  0  0  0  0
   20.7930   10.8170   15.0940 C   0  0  0  0  0  0  0  0  0  0  0  0
   21.6290   11.3430   13.4590 Br  0  0  0  0  0  0  0  0  0  0  0  0
  1  2  2  0
  2 15  1  0
  3  2  1  0
  3  4  1  0
  4 17  1  0
  4  5  1  0
  5 14  2  0
  5  6  1  0
  6  7  2  0
  7  8  1  0
  8  9  2  0
  9 10  1  0
 11 10  2  0
 12 11  1  0
 13 12  2  0
 13  8  1  0
 14 13  1  0
 15 16  1  0
 15 14  1  0
 18 17  2  0
 19 17  1  0
 20 18  1  0
 21 20  2  0
 21 19  1  0
 22 21  1  0
M  RAD  8   3   3   4   2   6   2   7   2   9   2  10   2  11   2  12   2
M  RAD  2  18   2  20   2
M  END
>  <vina_score>  (3) 
-7.0579999999999998

>  <pose_id>  (3) 
3

$$$$

     RDKit          3D

 22 25  0  0  1  0  0  0  0  0999 V2000
   20.1040    6.6150   16.9090 O   0  0  0  0  0  0  0  0  0  0  0  0
   20.4670    7.4920   17.6900 C   0  0  0  0  0  0  0  0  0  0  0  0
   21.9190    7.8120   17.9240 C   0  0  0  0  0  2  0  0  0  0  0  0
   22.1410    9.2870   18.2430 C   0  0  0  0  0  3  0  0  0  0  0  0
   21.1340    9.7900   19.2570 C   0  0  0  0  0  0  0  0  0  0  0  0
   21.4500   10.8790   20.0750 C   0  0  0  0  0  3  0  0  0  0  0  0
   20.5040   11.3880   20.9620 C   0  0  0  0  0  3  0  0  0  0  0  0
   19.2210   10.8290   21.0480 C   0  0  0  0  0  0  0  0  0  0  0  0
   18.2860   11.3670   21.9470 C   0  0  0  0  0  3  0  0  0  0  0  0
   17.0030   10.8330   22.0570 C   0  0  0  0  0  3  0  0  0  0  0  0
   16.6420    9.7490   21.2700 C   0  0  0  0  0  3  0  0  0  0  0  0
   17.5610    9.2020   20.3700 C   0  0  0  0  0  3  0  0  0  0  0  0
   18.8710    9.7260   20.2290 C   0  0  0  0  0  0  0  0  0  0  0  0
   19.8540    9.2160   19.3350 C   0  0  0  0  0  0  0  0  0  0  0  0
   19.5580    8.1460   18.4720 N   0  0  0  0  0  0  0  0  0  0  0  0
   18.6080    7.8160   18.3750 H   0  0  0  0  0  0  0  0  0  0  0  0
   22.1660   10.1370   16.9850 C   0  0  0  0  0  0  0  0  0  0  0  0
   21.1190   10.5440   16.1750 C   0  0  0  0  0  3  0  0  0  0  0  0
   23.6690   10.7260   16.3880 S   0  0  0  0  0  0  0  0  0  0  0  0
   21.5550   11.3380   15.0720 C   0  0  0  0  0  3  0  0  0  0  0  0
   22.9150   11.5010   15.0870 C   0  0  0  0  0  0  0  0  0  0  0  0
   23.8720   12.5030   13.7710 Br  0  0  0  0  0  0  0  0  0  0  0  0
  1  2  2  0
  2  3  1  0
  2 15  1  0
  3  4  1  0
  4 17  1  0
  4  5  1  0
  5 14  2  0
  5  6  1  0
  6  7  2  0
  7  8  1  0
  8  9  2  0
  9 10  1  0
 11 10  2  0
 12 11  1  0
 13 12  2  0
 13  8  1  0
 14 13  1  0
 15 14  1  0
 16 15  1  0
 18 17  2  0
 19 17  1  0
 20 21  2  0
 20 18  1  0
 21 19  1  0
 22 21  1  0
M  RAD  8   3   3   4   2   6   2   7   2   9   2  10   2  11   2  12   2
M  RAD  2  18   2  20   2
M  END
>  <vina_score>  (4) 
-6.7859999999999996

>  <pose_id>  (4) 
4

$$$$

     RDKit          3D

 22 25  0  0  1  0  0  0  0  0999 V2000
   22.9140   16.0660   12.3180 O   0  0  0  0  0  0  0  0  0  0  0  0
   22.3100   14.9960   12.3440 C   0  0  0  0  0  0  0  0  0  0  0  0
   22.8180   13.7660   11.6410 C   0  0  0  0  0  2  0  0  0  0  0  0
   22.4330   12.4830   12.3710 C   0  0  0  0  0  3  0  0  0  0  0  0
   20.9790   12.5050   12.7960 C   0  0  0  0  0  0  0  0  0  0  0  0
   20.2850   11.3040   12.9740 C   0  0  0  0  0  3  0  0  0  0  0  0
   18.9680   11.3150   13.4300 C   0  0  0  0  0  3  0  0  0  0  0  0
   18.3170   12.5220   13.7240 C   0  0  0  0  0  0  0  0  0  0  0  0
   16.9910   12.5020   14.1870 C   0  0  0  0  0  3  0  0  0  0  0  0
   16.3160   13.6840   14.4860 C   0  0  0  0  0  3  0  0  0  0  0  0
   16.9600   14.9030   14.3220 C   0  0  0  0  0  3  0  0  0  0  0  0
   18.2790   14.9390   13.8630 C   0  0  0  0  0  3  0  0  0  0  0  0
   18.9960   13.7540   13.5550 C   0  0  0  0  0  0  0  0  0  0  0  0
   20.3380   13.7220   13.0820 C   0  0  0  0  0  0  0  0  0  0  0  0
   21.0780   14.9080   12.9270 N   0  0  0  0  0  0  0  0  0  0  0  0
   20.7170   15.7840   13.2780 H   0  0  0  0  0  0  0  0  0  0  0  0
   23.3680   12.1950   13.5320 C   0  0  0  0  0  0  0  0  0  0  0  0
   23.4180   12.7730   14.7900 C   0  0  0  0  0  3  0  0  0  0  0  0
   24.5890   10.9930   13.3600 S   0  0  0  0  0  0  0  0  0  0  0  0
   24.4550   12.2270   15.6040 C   0  0  0  0  0  3  0  0  0  0  0  0
   25.1510   11.2570   14.9340 C   0  0  0  0  0  0  0  0  0  0  0  0
   26.6150   10.2930   15.6950 Br  0  0  0  0  0  0  0  0  0  0  0  0
  1  2  2  0
  2 15  1  0
  3  2  1  0
  3  4  1  0
  4  5  1  0
  4 17  1  0
  5  6  1  0
  5 14  2  0
  6  7  2  0
  7  8  1  0
  8  9  2  0
  9 10  1  0
 11 10  2  0
 12 11  1  0
 13  8  1  0
 13 12  2  0
 14 13  1  0
 15 14  1  0
 15 16  1  0
 17 18  2  0
 18 20  1  0
 19 17  1  0
 19 21  1  0
 21 20  2  0
 21 22  1  0
M  RAD  8   3   3   4   2   6   2   7   2   9   2  10   2  11   2  12   2
M  RAD  2  18   2  20   2
M  END
>  <vina_score>  (5) 
-6.7290000000000001

>  <pose_id>  (5) 
5

$$$$
