
     RDKit          3D

 24 26  0  0  0  0  0  0  0  0999 V2000
   23.4240    9.2900   17.3910 O   0  0  0  0  0  0  0  0  0  0  0  0
   22.6980   10.2770   17.3410 C   0  0  0  0  0  0  0  0  0  0  0  0
   22.8140   11.2540   16.3740 N   0  0  0  0  0  0  0  0  0  0  0  0
   22.0610   11.9180   16.2510 H   0  0  0  0  0  0  0  0  0  0  0  0
   21.5960   10.4500   18.3280 C   0  0  0  0  0  0  0  0  0  0  0  0
   21.9280   10.5900   19.6780 C   0  0  0  0  0  3  0  0  0  0  0  0
   20.2530   10.5010   17.9410 C   0  0  0  0  0  3  0  0  0  0  0  0
   20.9240   10.7520   20.6390 C   0  0  0  0  0  3  0  0  0  0  0  0
   19.2520   10.6660   18.9060 C   0  0  0  0  0  3  0  0  0  0  0  0
   19.5690   10.7900   20.2690 C   0  0  0  0  0  0  0  0  0  0  0  0
   18.5130   10.9610   21.2800 C   0  0  0  0  0  0  0  0  0  0  0  0
   17.2000   10.5210   21.0380 C   0  0  0  0  0  3  0  0  0  0  0  0
   18.7850   11.5690   22.5170 C   0  0  0  0  0  3  0  0  0  0  0  0
   16.1970   10.6840   21.9970 C   0  0  0  0  0  3  0  0  0  0  0  0
   17.7830   11.7330   23.4770 C   0  0  0  0  0  3  0  0  0  0  0  0
   16.4890   11.2910   23.2160 C   0  0  0  0  0  3  0  0  0  0  0  0
   23.7940   11.1370   15.3060 C   0  0  0  0  0  2  0  0  0  0  0  0
   23.7870   12.3650   14.3710 C   0  0  0  0  0  2  0  0  0  0  0  0
   23.8410   12.1250   12.9220 N   0  0  0  0  0  0  0  0  0  0  0  0
   24.3930   13.2530   12.1550 C   0  0  0  0  0  2  0  0  0  0  0  0
   24.5690   10.8900   12.5750 C   0  0  0  0  0  2  0  0  0  0  0  0
   24.3600   12.9540   10.6460 C   0  0  0  0  0  2  0  0  0  0  0  0
   24.5400   10.6460   11.0560 C   0  0  0  0  0  2  0  0  0  0  0  0
   25.0950   11.7590   10.3410 O   0  0  0  0  0  0  0  0  0  0  0  0
  2  1  2  0
  2  5  1  0
  3  2  1  0
  4  3  1  0
  5  6  1  0
  6  8  2  0
  7  5  2  0
  7  9  1  0
  9 10  2  0
 10  8  1  0
 10 11  1  0
 11 13  1  0
 12 11  2  0
 12 14  1  0
 13 15  2  0
 14 16  2  0
 16 15  1  0
 17  3  1  0
 18 17  1  0
 19 18  1  0
 20 19  1  0
 21 19  1  0
 22 20  1  0
 23 21  1  0
 24 22  1  0
 24 23  1  0
M  RAD  8   6   2   7   2   8   2   9   2  12   2  13   2  14   2  15   2
M  RAD  7  16   2  17   3  18   3  20   3  21   3  22   3  23   3
M  END
>  <vina_score>  (1) 
-7.6870000000000003

>  <pose_id>  (1) 
1

$$$$

     RDKit          3D

 24 26  0  0  0  0  0  0  0  0999 V2000
   15.0040   13.7480   17.8320 O   0  0  0  0  0  0  0  0  0  0  0  0
   15.8470   13.1760   17.1510 C   0  0  0  0  0  0  0  0  0  0  0  0
   16.5130   12.0400   17.5670 N   0  0  0  0  0  0  0  0  0  0  0  0
   17.0240   11.4920   16.8880 H   0  0  0  0  0  0  0  0  0  0  0  0
   16.1720   13.6680   15.7840 C   0  0  0  0  0  0  0  0  0  0  0  0
   16.9340   14.8330   15.6610 C   0  0  0  0  0  3  0  0  0  0  0  0
   15.7590   12.9920   14.6320 C   0  0  0  0  0  3  0  0  0  0  0  0
   17.2600   15.3330   14.3960 C   0  0  0  0  0  3  0  0  0  0  0  0
   16.0890   13.4950   13.3680 C   0  0  0  0  0  3  0  0  0  0  0  0
   16.8400   14.6740   13.2280 C   0  0  0  0  0  0  0  0  0  0  0  0
   17.1840   15.2010   11.8970 C   0  0  0  0  0  0  0  0  0  0  0  0
   18.5200   15.2530   11.4610 C   0  0  0  0  0  3  0  0  0  0  0  0
   16.1880   15.6670   11.0220 C   0  0  0  0  0  3  0  0  0  0  0  0
   18.8470   15.7530   10.1980 C   0  0  0  0  0  3  0  0  0  0  0  0
   16.5140   16.1680    9.7590 C   0  0  0  0  0  3  0  0  0  0  0  0
   17.8430   16.2110    9.3480 C   0  0  0  0  0  3  0  0  0  0  0  0
   16.2050   11.4180   18.8440 C   0  0  0  0  0  2  0  0  0  0  0  0
   17.1320   10.2230   19.1500 C   0  0  0  0  0  2  0  0  0  0  0  0
   17.9510   10.2830   20.3690 N   0  0  0  0  0  0  0  0  0  0  0  0
   19.3840   10.5000   20.1100 C   0  0  0  0  0  2  0  0  0  0  0  0
   17.4660   11.2890   21.3330 C   0  0  0  0  0  2  0  0  0  0  0  0
   20.1830   10.4890   21.4250 C   0  0  0  0  0  2  0  0  0  0  0  0
   18.3130   11.2660   22.6180 C   0  0  0  0  0  2  0  0  0  0  0  0
   19.7000   11.4910   22.3310 O   0  0  0  0  0  0  0  0  0  0  0  0
  2  3  1  0
  2  1  2  0
  3 17  1  0
  4  3  1  0
  5  2  1  0
  6  5  1  0
  7  5  2  0
  8  6  2  0
  9  7  1  0
 10  9  2  0
 10  8  1  0
 11 10  1  0
 12 11  2  0
 13 11  1  0
 14 12  1  0
 15 13  2  0
 16 15  1  0
 16 14  2  0
 17 18  1  0
 18 19  1  0
 19 21  1  0
 20 19  1  0
 20 22  1  0
 21 23  1  0
 22 24  1  0
 24 23  1  0
M  RAD  8   6   2   7   2   8   2   9   2  12   2  13   2  14   2  15   2
M  RAD  7  16   2  17   3  18   3  20   3  21   3  22   3  23   3
M  END
>  <vina_score>  (2) 
-7.1790000000000003

>  <pose_id>  (2) 
2

$$$$

     RDKit          3D

 24 26  0  0  0  0  0  0  0  0999 V2000
   22.9830    9.2920   18.0920 O   0  0  0  0  0  0  0  0  0  0  0  0
   22.3550   10.2760   17.7170 C   0  0  0  0  0  0  0  0  0  0  0  0
   21.3730   10.8820   18.4750 N   0  0  0  0  0  0  0  0  0  0  0  0
   21.0500   11.8050   18.2160 H   0  0  0  0  0  0  0  0  0  0  0  0
   22.6610   10.9080   16.4040 C   0  0  0  0  0  0  0  0  0  0  0  0
   21.5990   11.2080   15.5470 C   0  0  0  0  0  3  0  0  0  0  0  0
   23.9670   11.2280   16.0200 C   0  0  0  0  0  3  0  0  0  0  0  0
   21.8420   11.8010   14.3030 C   0  0  0  0  0  3  0  0  0  0  0  0
   24.2040   11.8230   14.7740 C   0  0  0  0  0  3  0  0  0  0  0  0
   23.1490   12.1150   13.8950 C   0  0  0  0  0  0  0  0  0  0  0  0
   23.4030   12.7380   12.5860 C   0  0  0  0  0  0  0  0  0  0  0  0
   22.6170   13.8100   12.1280 C   0  0  0  0  0  3  0  0  0  0  0  0
   24.4390   12.2800   11.7540 C   0  0  0  0  0  3  0  0  0  0  0  0
   22.8570   14.4010   10.8850 C   0  0  0  0  0  3  0  0  0  0  0  0
   24.6800   12.8710   10.5110 C   0  0  0  0  0  3  0  0  0  0  0  0
   23.8890   13.9310   10.0770 C   0  0  0  0  0  3  0  0  0  0  0  0
   21.0590   10.4050   19.8120 C   0  0  0  0  0  2  0  0  0  0  0  0
   19.6160    9.8680   19.9160 C   0  0  0  0  0  2  0  0  0  0  0  0
   18.6830   10.5730   20.8080 N   0  0  0  0  0  0  0  0  0  0  0  0
   17.4250    9.8470   21.0420 C   0  0  0  0  0  2  0  0  0  0  0  0
   19.2930   10.9330   22.1020 C   0  0  0  0  0  2  0  0  0  0  0  0
   16.4770   10.6720   21.9300 C   0  0  0  0  0  2  0  0  0  0  0  0
   18.3020   11.7260   22.9710 C   0  0  0  0  0  2  0  0  0  0  0  0
   17.0930   10.9860   23.1880 O   0  0  0  0  0  0  0  0  0  0  0  0
  2  1  2  0
  2  3  1  0
  3 17  1  0
  4  3  1  0
  5  2  1  0
  6  5  1  0
  7  5  2  0
  8  6  2  0
  9  7  1  0
 10  8  1  0
 10  9  2  0
 11 10  1  0
 12 11  2  0
 13 11  1  0
 14 12  1  0
 15 13  2  0
 16 15  1  0
 16 14  2  0
 17 18  1  0
 18 19  1  0
 19 20  1  0
 19 21  1  0
 20 22  1  0
 21 23  1  0
 22 24  1  0
 23 24  1  0
M  RAD  8   6   2   7   2   8   2   9   2  12   2  13   2  14   2  15   2
M  RAD  7  16   2  17   3  18   3  20   3  21   3  22   3  23   3
M  END
>  <vina_score>  (3) 
-6.891

>  <pose_id>  (3) 
3

$$$$

     RDKit          3D

 24 26  0  0  0  0  0  0  0  0999 V2000
   21.9290    8.2880   15.9940 O   0  0  0  0  0  0  0  0  0  0  0  0
   22.3570    8.8770   16.9800 C   0  0  0  0  0  0  0  0  0  0  0  0
   23.6870    9.2060   17.1470 N   0  0  0  0  0  0  0  0  0  0  0  0
   23.9430    9.8760   17.8610 H   0  0  0  0  0  0  0  0  0  0  0  0
   21.4270    9.3150   18.0570 C   0  0  0  0  0  0  0  0  0  0  0  0
   20.1900    8.6730   18.1680 C   0  0  0  0  0  3  0  0  0  0  0  0
   21.7630   10.3240   18.9650 C   0  0  0  0  0  3  0  0  0  0  0  0
   19.2840    9.0550   19.1640 C   0  0  0  0  0  3  0  0  0  0  0  0
   20.8540   10.7010   19.9610 C   0  0  0  0  0  3  0  0  0  0  0  0
   19.6000   10.0770   20.0750 C   0  0  0  0  0  0  0  0  0  0  0  0
   18.6460   10.4780   21.1230 C   0  0  0  0  0  0  0  0  0  0  0  0
   19.0700   11.2100   22.2460 C   0  0  0  0  0  3  0  0  0  0  0  0
   17.2850   10.1420   21.0320 C   0  0  0  0  0  3  0  0  0  0  0  0
   18.1660   11.5900   23.2420 C   0  0  0  0  0  3  0  0  0  0  0  0
   16.3800   10.5210   22.0260 C   0  0  0  0  0  3  0  0  0  0  0  0
   16.8210   11.2450   23.1310 C   0  0  0  0  0  3  0  0  0  0  0  0
   24.6660    8.9120   16.1150 C   0  0  0  0  0  2  0  0  0  0  0  0
   25.5630   10.1270   15.7970 C   0  0  0  0  0  2  0  0  0  0  0  0
   25.2590   10.9080   14.5890 N   0  0  0  0  0  0  0  0  0  0  0  0
   24.4680   10.1720   13.5910 C   0  0  0  0  0  2  0  0  0  0  0  0
   24.6000   12.1930   14.8910 C   0  0  0  0  0  2  0  0  0  0  0  0
   24.2430   11.0290   12.3330 C   0  0  0  0  0  2  0  0  0  0  0  0
   24.3650   13.0020   13.6040 C   0  0  0  0  0  2  0  0  0  0  0  0
   23.5820   12.2600   12.6580 O   0  0  0  0  0  0  0  0  0  0  0  0
  1  2  2  0
  2  3  1  0
  2  5  1  0
  3  4  1  0
  5  6  1  0
  5  7  2  0
  6  8  2  0
  7  9  1  0
  8 10  1  0
  9 10  2  0
 10 11  1  0
 11 12  2  0
 12 14  1  0
 13 11  1  0
 13 15  2  0
 15 16  1  0
 16 14  2  0
 17  3  1  0
 18 17  1  0
 19 21  1  0
 19 18  1  0
 20 19  1  0
 22 24  1  0
 22 20  1  0
 23 21  1  0
 24 23  1  0
M  RAD  8   6   2   7   2   8   2   9   2  12   2  13   2  14   2  15   2
M  RAD  7  16   2  17   3  18   3  20   3  21   3  22   3  23   3
M  END
>  <vina_score>  (4) 
-6.8070000000000004

>  <pose_id>  (4) 
4

$$$$

     RDKit          3D

 24 26  0  0  0  0  0  0  0  0999 V2000
   17.5800   12.3070   17.4800 O   0  0  0  0  0  0  0  0  0  0  0  0
   18.6570   12.2790   16.8960 C   0  0  0  0  0  0  0  0  0  0  0  0
   19.7540   11.5850   17.3630 N   0  0  0  0  0  0  0  0  0  0  0  0
   20.5330   11.4170   16.7400 H   0  0  0  0  0  0  0  0  0  0  0  0
   18.8230   12.9800   15.5930 C   0  0  0  0  0  0  0  0  0  0  0  0
   19.9450   12.6800   14.8150 C   0  0  0  0  0  3  0  0  0  0  0  0
   17.8850   13.9030   15.1200 C   0  0  0  0  0  3  0  0  0  0  0  0
   20.1420   13.3170   13.5850 C   0  0  0  0  0  3  0  0  0  0  0  0
   18.0860   14.5360   13.8860 C   0  0  0  0  0  3  0  0  0  0  0  0
   19.2180   14.2580   13.1020 C   0  0  0  0  0  0  0  0  0  0  0  0
   19.4260   14.9270   11.8070 C   0  0  0  0  0  0  0  0  0  0  0  0
   18.3360   15.3540   11.0290 C   0  0  0  0  0  3  0  0  0  0  0  0
   20.7200   15.1600   11.3110 C   0  0  0  0  0  3  0  0  0  0  0  0
   18.5320   15.9890    9.8000 C   0  0  0  0  0  3  0  0  0  0  0  0
   20.9180   15.7940   10.0820 C   0  0  0  0  0  3  0  0  0  0  0  0
   19.8240   16.2080    9.3270 C   0  0  0  0  0  3  0  0  0  0  0  0
   19.6740   10.7880   18.5760 C   0  0  0  0  0  2  0  0  0  0  0  0
   19.7950   11.6510   19.8500 C   0  0  0  0  0  2  0  0  0  0  0  0
   18.6370   11.7060   20.7540 N   0  0  0  0  0  0  0  0  0  0  0  0
   17.5780   10.7380   20.4220 C   0  0  0  0  0  2  0  0  0  0  0  0
   19.0130   11.5570   22.1730 C   0  0  0  0  0  2  0  0  0  0  0  0
   16.3770   10.8970   21.3700 C   0  0  0  0  0  2  0  0  0  0  0  0
   17.7790   11.6900   23.0820 C   0  0  0  0  0  2  0  0  0  0  0  0
   16.7740   10.7260   22.7380 O   0  0  0  0  0  0  0  0  0  0  0  0
  2  3  1  0
  2  1  2  0
  3 17  1  0
  4  3  1  0
  5  2  1  0
  6  5  1  0
  7  5  2  0
  8  6  2  0
  9  7  1  0
 10  8  1  0
 10  9  2  0
 11 10  1  0
 12 11  2  0
 13 11  1  0
 14 12  1  0
 15 13  2  0
 16 14  2  0
 16 15  1  0
 17 18  1  0
 18 19  1  0
 19 21  1  0
 20 19  1  0
 20 22  1  0
 21 23  1  0
 22 24  1  0
 24 23  1  0
M  RAD  8   6   2   7   2   8   2   9   2  12   2  13   2  14   2  15   2
M  RAD  7  16   2  17   3  18   3  20   3  21   3  22   3  23   3
M  END
>  <vina_score>  (5) 
-6.7690000000000001

>  <pose_id>  (5) 
5

$$$$
