
     RDKit          3D

 23 25  0  0  1  0  0  0  0  0999 V2000
   17.1810   14.1780   13.2280 C   0  0  1  0  0  0  0  0  0  0  0  0
   16.6380   12.8570   13.0020 O   0  0  0  0  0  0  0  0  0  0  0  0
   16.8570   12.3110   13.7740 H   0  0  0  0  0  0  0  0  0  0  0  0
   16.8300   14.9790   11.9560 C   0  0  0  0  0  0  0  0  0  0  0  0
   17.7910   15.5880   11.1370 C   0  0  0  0  0  3  0  0  0  0  0  0
   15.4850   15.0750   11.5440 C   0  0  0  0  0  3  0  0  0  0  0  0
   17.3790   16.2650    9.9980 C   0  0  0  0  0  3  0  0  0  0  0  0
   15.1730   15.7750   10.3900 C   0  0  0  0  0  3  0  0  0  0  0  0
   16.0930   16.3740    9.6100 N   0  0  0  0  0  0  0  0  0  0  0  0
   16.4870   14.7020   14.5110 C   0  0  0  0  0  0  0  0  0  0  0  0
   16.2420   13.8290   15.5920 C   0  0  0  0  0  3  0  0  0  0  0  0
   16.1340   16.0590   14.6690 C   0  0  0  0  0  3  0  0  0  0  0  0
   15.6440   14.2850   16.7680 C   0  0  0  0  0  3  0  0  0  0  0  0
   15.5340   16.5140   15.8480 C   0  0  0  0  0  3  0  0  0  0  0  0
   15.2930   15.6220   16.8840 C   0  0  0  0  0  0  0  0  0  0  0  0
   14.7200   16.0610   18.0120 F   0  0  0  0  0  0  0  0  0  0  0  0
   18.7000   14.0120   13.4820 C   0  0  0  0  0  0  0  0  0  0  0  0
   19.4430   14.9970   14.1660 C   0  0  0  0  0  3  0  0  0  0  0  0
   19.3840   12.8500   13.0610 C   0  0  0  0  0  3  0  0  0  0  0  0
   20.8100   14.8320   14.4080 C   0  0  0  0  0  3  0  0  0  0  0  0
   20.7500   12.6880   13.3030 C   0  0  0  0  0  3  0  0  0  0  0  0
   21.4510   13.6810   13.9740 C   0  0  0  0  0  0  0  0  0  0  0  0
   22.7590   13.5230   14.2080 F   0  0  0  0  0  0  0  0  0  0  0  0
  1  2  1  6
  1 17  1  0
  1 10  1  0
  2  3  1  0
  4  1  1  0
  5  4  1  0
  6  4  2  0
  7  5  2  0
  8  6  1  0
  9  7  1  0
  9  8  2  0
 10 12  2  0
 10 11  1  0
 11 13  2  0
 12 14  1  0
 13 15  1  0
 14 15  2  0
 15 16  1  0
 17 18  1  0
 18 20  2  0
 19 21  1  0
 19 17  2  0
 21 22  2  0
 22 23  1  0
 22 20  1  0
M  RAD  8   5   2   6   2   7   2   8   2  11   2  12   2  13   2  14   2
M  RAD  4  18   2  19   2  20   2  21   2
M  END
>  <vina_score>  (1) 
-6.8250000000000002

>  <pose_id>  (1) 
1

$$$$

     RDKit          3D

 23 25  0  0  1  0  0  0  0  0999 V2000
   18.0540   10.4400   18.9390 C   0  0  1  0  0  0  0  0  0  0  0  0
   17.2650    9.2780   18.5950 O   0  0  0  0  0  0  0  0  0  0  0  0
   17.4370    9.0690   17.6630 H   0  0  0  0  0  0  0  0  0  0  0  0
   19.5190   10.0150   18.6990 C   0  0  0  0  0  0  0  0  0  0  0  0
   20.6210   10.7650   19.1310 C   0  0  0  0  0  3  0  0  0  0  0  0
   19.7920    8.7880   18.0600 C   0  0  0  0  0  3  0  0  0  0  0  0
   21.9030   10.2880   18.8910 C   0  0  0  0  0  3  0  0  0  0  0  0
   21.1060    8.3970   17.8650 C   0  0  0  0  0  3  0  0  0  0  0  0
   22.1670    9.1240   18.2650 N   0  0  0  0  0  0  0  0  0  0  0  0
   17.5680   11.5710   17.9980 C   0  0  0  0  0  0  0  0  0  0  0  0
   18.4570   12.1540   17.0700 C   0  0  0  0  0  3  0  0  0  0  0  0
   16.2270   12.0130   17.9900 C   0  0  0  0  0  3  0  0  0  0  0  0
   18.0330   13.1530   16.1920 C   0  0  0  0  0  3  0  0  0  0  0  0
   15.8050   13.0150   17.1110 C   0  0  0  0  0  3  0  0  0  0  0  0
   16.7130   13.5760   16.2230 C   0  0  0  0  0  0  0  0  0  0  0  0
   16.3050   14.5350   15.3810 F   0  0  0  0  0  0  0  0  0  0  0  0
   17.7240   10.7990   20.4080 C   0  0  0  0  0  0  0  0  0  0  0  0
   18.4670   11.7700   21.1130 C   0  0  0  0  0  3  0  0  0  0  0  0
   16.6460   10.1840   21.0820 C   0  0  0  0  0  3  0  0  0  0  0  0
   18.1520   12.1020   22.4340 C   0  0  0  0  0  3  0  0  0  0  0  0
   16.3330   10.5170   22.4010 C   0  0  0  0  0  3  0  0  0  0  0  0
   17.0890   11.4730   23.0660 C   0  0  0  0  0  0  0  0  0  0  0  0
   16.7870   11.7940   24.3290 F   0  0  0  0  0  0  0  0  0  0  0  0
  1  2  1  6
  1 17  1  0
  3  2  1  0
  4  1  1  0
  4  5  1  0
  6  4  2  0
  7  5  2  0
  8  6  1  0
  8  9  2  0
  9  7  1  0
 10  1  1  0
 11 10  1  0
 12 10  2  0
 13 15  1  0
 13 11  2  0
 14 12  1  0
 15 14  2  0
 16 15  1  0
 17 19  2  0
 17 18  1  0
 18 20  2  0
 19 21  1  0
 20 22  1  0
 21 22  2  0
 22 23  1  0
M  RAD  8   5   2   6   2   7   2   8   2  11   2  12   2  13   2  14   2
M  RAD  4  18   2  19   2  20   2  21   2
M  END
>  <vina_score>  (2) 
-6.2809999999999997

>  <pose_id>  (2) 
2

$$$$

     RDKit          3D

 23 25  0  0  1  0  0  0  0  0999 V2000
   19.5080   13.9250   14.1380 C   0  0  1  0  0  0  0  0  0  0  0  0
   20.3670   14.4020   15.1990 O   0  0  0  0  0  0  0  0  0  0  0  0
   19.8320   14.4680   16.0060 H   0  0  0  0  0  0  0  0  0  0  0  0
   19.6200   12.3860   14.1930 C   0  0  0  0  0  0  0  0  0  0  0  0
   19.5160   11.5640   13.0630 C   0  0  0  0  0  3  0  0  0  0  0  0
   19.8950   11.7520   15.4220 C   0  0  0  0  0  3  0  0  0  0  0  0
   19.6570   10.1900   13.2080 C   0  0  0  0  0  3  0  0  0  0  0  0
   20.0180   10.3730   15.4660 C   0  0  0  0  0  3  0  0  0  0  0  0
   19.9020    9.5790   14.3840 N   0  0  0  0  0  0  0  0  0  0  0  0
   18.0930   14.4620   14.4710 C   0  0  0  0  0  0  0  0  0  0  0  0
   17.9320   15.7640   14.9910 C   0  0  0  0  0  3  0  0  0  0  0  0
   16.9270   13.7080   14.2160 C   0  0  0  0  0  3  0  0  0  0  0  0
   16.6660   16.2800   15.2720 C   0  0  0  0  0  3  0  0  0  0  0  0
   15.6590   14.2260   14.4980 C   0  0  0  0  0  3  0  0  0  0  0  0
   15.5420   15.5050   15.0250 C   0  0  0  0  0  0  0  0  0  0  0  0
   14.3260   15.9990   15.2930 F   0  0  0  0  0  0  0  0  0  0  0  0
   20.0140   14.5580   12.8190 C   0  0  0  0  0  0  0  0  0  0  0  0
   19.1180   15.0020   11.8250 C   0  0  0  0  0  3  0  0  0  0  0  0
   21.3950   14.7380   12.5830 C   0  0  0  0  0  3  0  0  0  0  0  0
   19.5810   15.5900   10.6440 C   0  0  0  0  0  3  0  0  0  0  0  0
   21.8560   15.3250   11.4020 C   0  0  0  0  0  3  0  0  0  0  0  0
   20.9450   15.7450   10.4430 C   0  0  0  0  0  0  0  0  0  0  0  0
   21.3870   16.3100    9.3140 F   0  0  0  0  0  0  0  0  0  0  0  0
  1  4  1  0
  1 10  1  0
  1  2  1  1
  2  3  1  0
  4  6  2  0
  5  7  2  0
  5  4  1  0
  6  8  1  0
  7  9  1  0
  9  8  2  0
 10 11  1  0
 11 13  2  0
 12 10  2  0
 12 14  1  0
 14 15  2  0
 15 13  1  0
 15 16  1  0
 17  1  1  0
 18 17  1  0
 19 17  2  0
 20 18  2  0
 21 19  1  0
 22 20  1  0
 22 21  2  0
 23 22  1  0
M  RAD  8   5   2   6   2   7   2   8   2  11   2  12   2  13   2  14   2
M  RAD  4  18   2  19   2  20   2  21   2
M  END
>  <vina_score>  (3) 
-6.2370000000000001

>  <pose_id>  (3) 
3

$$$$

     RDKit          3D

 23 25  0  0  1  0  0  0  0  0999 V2000
   16.8810   10.1350   19.1770 C   0  0  1  0  0  0  0  0  0  0  0  0
   15.4830    9.7770   19.0820 O   0  0  0  0  0  0  0  0  0  0  0  0
   14.9610   10.5460   19.3610 H   0  0  0  0  0  0  0  0  0  0  0  0
   17.6490    8.8260   18.8920 C   0  0  0  0  0  0  0  0  0  0  0  0
   18.5980    8.2820   19.7700 C   0  0  0  0  0  3  0  0  0  0  0  0
   17.3650    8.0920   17.7230 C   0  0  0  0  0  3  0  0  0  0  0  0
   19.2190    7.0850   19.4390 C   0  0  0  0  0  3  0  0  0  0  0  0
   18.0390    6.9070   17.4800 C   0  0  0  0  0  3  0  0  0  0  0  0
   18.9620    6.3900   18.3130 N   0  0  0  0  0  0  0  0  0  0  0  0
   17.1040   11.2370   18.1110 C   0  0  0  0  0  0  0  0  0  0  0  0
   16.0500   12.1050   17.7550 C   0  0  0  0  0  3  0  0  0  0  0  0
   18.3630   11.4520   17.5080 C   0  0  0  0  0  3  0  0  0  0  0  0
   16.2350   13.1230   16.8190 C   0  0  0  0  0  3  0  0  0  0  0  0
   18.5470   12.4720   16.5700 C   0  0  0  0  0  3  0  0  0  0  0  0
   17.4810   13.2950   16.2330 C   0  0  0  0  0  0  0  0  0  0  0  0
   17.6600   14.2730   15.3350 F   0  0  0  0  0  0  0  0  0  0  0  0
   17.1100   10.7180   20.5930 C   0  0  0  0  0  0  0  0  0  0  0  0
   16.2040   10.4680   21.6450 C   0  0  0  0  0  3  0  0  0  0  0  0
   18.2520   11.4970   20.8830 C   0  0  0  0  0  3  0  0  0  0  0  0
   16.4260   10.9820   22.9270 C   0  0  0  0  0  3  0  0  0  0  0  0
   18.4710   12.0100   22.1630 C   0  0  0  0  0  3  0  0  0  0  0  0
   17.5560   11.7480   23.1730 C   0  0  0  0  0  0  0  0  0  0  0  0
   17.7680   12.2380   24.4010 F   0  0  0  0  0  0  0  0  0  0  0  0
  1  2  1  1
  1 17  1  0
  2  3  1  0
  4  1  1  0
  4  5  1  0
  6  4  2  0
  7  5  2  0
  8  6  1  0
  8  9  2  0
  9  7  1  0
 10  1  1  0
 11 10  1  0
 12 10  2  0
 13 11  2  0
 14 12  1  0
 15 14  2  0
 15 13  1  0
 16 15  1  0
 17 19  2  0
 17 18  1  0
 18 20  2  0
 19 21  1  0
 20 22  1  0
 21 22  2  0
 22 23  1  0
M  RAD  8   5   2   6   2   7   2   8   2  11   2  12   2  13   2  14   2
M  RAD  4  18   2  19   2  20   2  21   2
M  END
>  <vina_score>  (4) 
-5.5359999999999996

>  <pose_id>  (4) 
4

$$$$
