
     RDKit          3D

 28 30  0  0  1  0  0  0  0  0999 V2000
   19.2160   13.1570   16.0240 N   0  0  0  0  0  0  0  0  0  0  0  0
   18.4470   13.6310   14.9710 C   0  0  0  0  0  0  0  0  0  0  0  0
   17.5180   12.9600   14.5240 O   0  0  0  0  0  0  0  0  0  0  0  0
   19.8050   13.8110   16.5220 H   0  0  0  0  0  0  0  0  0  0  0  0
   18.8850   11.9140   16.6890 C   0  0  0  0  0  2  0  0  0  0  0  0
   19.8920   10.8100   16.3770 C   0  0  0  0  0  2  0  0  0  0  0  0
   20.8700   11.2100   15.2690 C   0  0  0  0  0  2  0  0  0  0  0  0
   20.4700   10.6060   13.9310 C   0  0  0  0  0  1  0  0  0  0  0  0
   18.8530   15.0560   14.4350 C   0  0  2  0  0  0  0  0  0  0  0  0
   17.8650   16.1220   14.9800 C   0  0  0  0  0  2  0  0  0  0  0  0
   18.8760   15.1380   12.9350 N   0  0  0  0  0  0  0  0  0  0  0  0
   16.4700   15.9940   14.3780 C   0  0  0  0  0  2  0  0  0  0  0  0
   17.5420   15.0180   12.3230 C   0  0  0  0  0  2  0  0  0  0  0  0
   16.5590   16.0520   12.8640 C   0  0  0  0  0  2  0  0  0  0  0  0
   20.2470   15.4100   15.0090 C   0  0  0  0  0  1  0  0  0  0  0  0
   19.8470   14.2230   12.2980 C   0  0  0  0  0  2  0  0  0  0  0  0
   20.7510   14.8900   11.2670 C   0  0  0  0  0  0  0  0  0  0  0  0
   20.1870   15.8650   10.4190 C   0  0  0  0  0  3  0  0  0  0  0  0
   22.1190   14.5650   11.1280 C   0  0  0  0  0  0  0  0  0  0  0  0
   20.9560   16.5150    9.4550 C   0  0  0  0  0  3  0  0  0  0  0  0
   22.8760   15.2350   10.1460 C   0  0  0  0  0  3  0  0  0  0  0  0
   22.3030   16.2000    9.3180 C   0  0  0  0  0  3  0  0  0  0  0  0
   22.7920   13.5540   11.9560 C   0  0  0  0  0  0  0  0  0  0  0  0
   23.0330   12.2650   11.4560 C   0  0  0  0  0  3  0  0  0  0  0  0
   23.2380   13.8670   13.2470 C   0  0  0  0  0  3  0  0  0  0  0  0
   23.6990   11.3130   12.2320 C   0  0  0  0  0  3  0  0  0  0  0  0
   23.9060   12.9160   14.0230 C   0  0  0  0  0  3  0  0  0  0  0  0
   24.1360   11.6390   13.5140 C   0  0  0  0  0  3  0  0  0  0  0  0
  1  4  1  0
  1  5  1  0
  2  1  1  0
  3  2  2  0
  6  5  1  0
  7  6  1  0
  8  7  1  0
  9  2  1  0
  9 10  1  0
  9 15  1  1
 11  9  1  0
 12 10  1  0
 13 14  1  0
 13 11  1  0
 14 12  1  0
 16 11  1  0
 17 16  1  0
 18 17  2  0
 19 17  1  0
 19 23  1  0
 20 18  1  0
 21 19  2  0
 22 20  2  0
 22 21  1  0
 23 25  1  0
 24 23  2  0
 24 26  1  0
 25 27  2  0
 26 28  2  0
 28 27  1  0
M  RAD  8   5   3   6   3   7   3   8   2  10   3  12   3  13   3  14   3
M  RAD  8  15   2  16   3  18   2  20   2  21   2  22   2  24   2  25   2
M  RAD  3  26   2  27   2  28   2
M  END
>  <vina_score>  (1) 
-6.5780000000000003

>  <pose_id>  (1) 
1

$$$$

     RDKit          3D

 28 30  0  0  1  0  0  0  0  0999 V2000
   23.0670   11.2500   14.7580 N   0  0  0  0  0  0  0  0  0  0  0  0
   22.7710   12.4210   14.0760 C   0  0  0  0  0  0  0  0  0  0  0  0
   22.9890   13.5160   14.5910 O   0  0  0  0  0  0  0  0  0  0  0  0
   23.1040   10.3840   14.2360 H   0  0  0  0  0  0  0  0  0  0  0  0
   23.7300   11.2830   16.0450 C   0  0  0  0  0  2  0  0  0  0  0  0
   25.2500   11.2270   15.9100 C   0  0  0  0  0  2  0  0  0  0  0  0
   25.7040   10.2190   14.8520 C   0  0  0  0  0  2  0  0  0  0  0  0
   26.0070    8.8630   15.4720 C   0  0  0  0  0  1  0  0  0  0  0  0
   22.1660   12.2200   12.6350 C   0  0  2  0  0  0  0  0  0  0  0  0
   23.0930   11.2930   11.8020 C   0  0  0  0  0  2  0  0  0  0  0  0
   21.9750   13.5110   11.8890 N   0  0  0  0  0  0  0  0  0  0  0  0
   24.4210   11.9520   11.4490 C   0  0  0  0  0  2  0  0  0  0  0  0
   23.2430   14.1720   11.5330 C   0  0  0  0  0  2  0  0  0  0  0  0
   24.1670   13.2620   10.7280 C   0  0  0  0  0  2  0  0  0  0  0  0
   20.8120   11.4820   12.7760 C   0  0  0  0  0  1  0  0  0  0  0  0
   21.0410   14.4500   12.5450 C   0  0  0  0  0  2  0  0  0  0  0  0
   19.9580   15.0000   11.6220 C   0  0  0  0  0  0  0  0  0  0  0  0
   20.3500   15.5210   10.3720 C   0  0  0  0  0  3  0  0  0  0  0  0
   18.5900   15.0100   11.9730 C   0  0  0  0  0  0  0  0  0  0  0  0
   19.4130   16.0390    9.4800 C   0  0  0  0  0  3  0  0  0  0  0  0
   17.6600   15.5390   11.0550 C   0  0  0  0  0  3  0  0  0  0  0  0
   18.0660   16.0480    9.8220 C   0  0  0  0  0  3  0  0  0  0  0  0
   18.0870   14.5020   13.2570 C   0  0  0  0  0  0  0  0  0  0  0  0
   17.9700   15.3520   14.3680 C   0  0  0  0  0  3  0  0  0  0  0  0
   17.6810   13.1670   13.3900 C   0  0  0  0  0  3  0  0  0  0  0  0
   17.4640   14.8770   15.5800 C   0  0  0  0  0  3  0  0  0  0  0  0
   17.1730   12.6900   14.6010 C   0  0  0  0  0  3  0  0  0  0  0  0
   17.0650   13.5460   15.6950 C   0  0  0  0  0  3  0  0  0  0  0  0
  1  5  1  0
  2  3  2  0
  2  1  1  0
  4  1  1  0
  6  5  1  0
  7  8  1  0
  7  6  1  0
  9 15  1  1
  9  2  1  0
 10  9  1  0
 11 16  1  0
 11  9  1  0
 12 10  1  0
 13 11  1  0
 14 12  1  0
 14 13  1  0
 17 19  1  0
 17 16  1  0
 18 17  2  0
 19 23  1  0
 20 22  2  0
 20 18  1  0
 21 19  2  0
 22 21  1  0
 23 25  1  0
 23 24  2  0
 24 26  1  0
 25 27  2  0
 26 28  2  0
 27 28  1  0
M  RAD  8   5   3   6   3   7   3   8   2  10   3  12   3  13   3  14   3
M  RAD  8  15   2  16   3  18   2  20   2  21   2  22   2  24   2  25   2
M  RAD  3  26   2  27   2  28   2
M  END
>  <vina_score>  (2) 
-6.468

>  <pose_id>  (2) 
2

$$$$

     RDKit          3D

 28 30  0  0  1  0  0  0  0  0999 V2000
   19.7960   11.3250   17.6640 N   0  0  0  0  0  0  0  0  0  0  0  0
   20.0260   11.3030   16.2970 C   0  0  0  0  0  0  0  0  0  0  0  0
   21.1170   10.9490   15.8530 O   0  0  0  0  0  0  0  0  0  0  0  0
   18.8400   11.3860   17.9910 H   0  0  0  0  0  0  0  0  0  0  0  0
   20.7920   10.8390   18.5970 C   0  0  0  0  0  2  0  0  0  0  0  0
   20.4730   11.2350   20.0360 C   0  0  0  0  0  2  0  0  0  0  0  0
   19.1700   12.0300   20.1470 C   0  0  0  0  0  2  0  0  0  0  0  0
   18.5030   11.8170   21.4980 C   0  0  0  0  0  1  0  0  0  0  0  0
   18.8030   11.7430   15.4060 C   0  0  2  0  0  0  0  0  0  0  0  0
   17.8330   10.5460   15.2190 C   0  0  0  0  0  2  0  0  0  0  0  0
   19.2120   12.2520   14.0520 N   0  0  0  0  0  0  0  0  0  0  0  0
   18.4190    9.4430   14.3470 C   0  0  0  0  0  2  0  0  0  0  0  0
   19.7830   11.2070   13.1840 C   0  0  0  0  0  2  0  0  0  0  0  0
   18.8410   10.0190   13.0080 C   0  0  0  0  0  2  0  0  0  0  0  0
   18.0170   12.8370   16.1700 C   0  0  0  0  0  1  0  0  0  0  0  0
   20.0770   13.4500   14.0960 C   0  0  0  0  0  2  0  0  0  0  0  0
   20.0590   14.2810   12.8180 C   0  0  0  0  0  0  0  0  0  0  0  0
   21.2450   14.3620   12.0600 C   0  0  0  0  0  3  0  0  0  0  0  0
   18.9090   14.9700   12.3710 C   0  0  0  0  0  0  0  0  0  0  0  0
   21.3000   15.1040   10.8810 C   0  0  0  0  0  3  0  0  0  0  0  0
   18.9880   15.7140   11.1770 C   0  0  0  0  0  3  0  0  0  0  0  0
   20.1690   15.7800   10.4380 C   0  0  0  0  0  3  0  0  0  0  0  0
   17.6320   14.9560   13.0990 C   0  0  0  0  0  0  0  0  0  0  0  0
   16.6590   13.9840   12.8200 C   0  0  0  0  0  3  0  0  0  0  0  0
   17.3750   15.8900   14.1120 C   0  0  0  0  0  3  0  0  0  0  0  0
   15.4580   13.9520   13.5320 C   0  0  0  0  0  3  0  0  0  0  0  0
   16.1740   15.8580   14.8270 C   0  0  0  0  0  3  0  0  0  0  0  0
   15.2170   14.8880   14.5360 C   0  0  0  0  0  3  0  0  0  0  0  0
  1  4  1  0
  1  5  1  0
  2  1  1  0
  3  2  2  0
  5  6  1  0
  6  7  1  0
  7  8  1  0
  9 15  1  1
  9  2  1  0
 10  9  1  0
 11 16  1  0
 11  9  1  0
 12 10  1  0
 13 11  1  0
 14 13  1  0
 14 12  1  0
 17 16  1  0
 18 17  2  0
 19 17  1  0
 19 23  1  0
 20 18  1  0
 21 19  2  0
 22 20  2  0
 22 21  1  0
 23 25  1  0
 24 23  2  0
 24 26  1  0
 25 27  2  0
 26 28  2  0
 28 27  1  0
M  RAD  8   5   3   6   3   7   3   8   2  10   3  12   3  13   3  14   3
M  RAD  8  15   2  16   3  18   2  20   2  21   2  22   2  24   2  25   2
M  RAD  3  26   2  27   2  28   2
M  END
>  <vina_score>  (3) 
-6.3120000000000003

>  <pose_id>  (3) 
3

$$$$

     RDKit          3D

 28 30  0  0  1  0  0  0  0  0999 V2000
   19.2210   13.1580   16.0690 N   0  0  0  0  0  0  0  0  0  0  0  0
   18.4940   13.5970   14.9730 C   0  0  0  0  0  0  0  0  0  0  0  0
   17.6000   12.9010   14.4960 O   0  0  0  0  0  0  0  0  0  0  0  0
   19.7750   13.8320   16.5820 H   0  0  0  0  0  0  0  0  0  0  0  0
   18.8820   11.9210   16.7420 C   0  0  0  0  0  2  0  0  0  0  0  0
   19.1250   12.0000   18.2470 C   0  0  0  0  0  2  0  0  0  0  0  0
   17.9320   11.4870   19.0570 C   0  0  0  0  0  2  0  0  0  0  0  0
   16.6800   11.3880   18.1990 C   0  0  0  0  0  1  0  0  0  0  0  0
   18.9000   15.0190   14.4290 C   0  0  2  0  0  0  0  0  0  0  0  0
   17.8840   16.0810   14.9290 C   0  0  0  0  0  2  0  0  0  0  0  0
   18.9670   15.0810   12.9280 N   0  0  0  0  0  0  0  0  0  0  0  0
   16.5100   15.9290   14.2880 C   0  0  0  0  0  2  0  0  0  0  0  0
   17.6520   14.9370   12.2790 C   0  0  0  0  0  2  0  0  0  0  0  0
   16.6420   15.9670   12.7770 C   0  0  0  0  0  2  0  0  0  0  0  0
   20.2730   15.3980   15.0380 C   0  0  0  0  0  1  0  0  0  0  0  0
   19.9670   14.1680   12.3330 C   0  0  0  0  0  2  0  0  0  0  0  0
   20.8640   14.8210   11.2880 C   0  0  0  0  0  0  0  0  0  0  0  0
   20.2980   15.7930   10.4380 C   0  0  0  0  0  3  0  0  0  0  0  0
   22.2290   14.4870   11.1380 C   0  0  0  0  0  0  0  0  0  0  0  0
   21.0600   16.4290    9.4600 C   0  0  0  0  0  3  0  0  0  0  0  0
   22.9800   15.1440   10.1430 C   0  0  0  0  0  3  0  0  0  0  0  0
   22.4040   16.1050    9.3130 C   0  0  0  0  0  3  0  0  0  0  0  0
   22.9040   13.4790   11.9680 C   0  0  0  0  0  0  0  0  0  0  0  0
   22.9830   12.1420   11.5480 C   0  0  0  0  0  3  0  0  0  0  0  0
   23.5130   13.8390   13.1780 C   0  0  0  0  0  3  0  0  0  0  0  0
   23.6500   11.1900   12.3220 C   0  0  0  0  0  3  0  0  0  0  0  0
   24.1820   12.8870   13.9530 C   0  0  0  0  0  3  0  0  0  0  0  0
   24.2500   11.5640   13.5230 C   0  0  0  0  0  3  0  0  0  0  0  0
  1  4  1  0
  1  5  1  0
  2  1  1  0
  3  2  2  0
  5  6  1  0
  6  7  1  0
  8  7  1  0
  9 10  1  0
  9  2  1  0
  9 15  1  1
 11  9  1  0
 12 10  1  0
 13 14  1  0
 13 11  1  0
 14 12  1  0
 16 11  1  0
 17 16  1  0
 18 17  2  0
 19 17  1  0
 19 23  1  0
 20 18  1  0
 21 19  2  0
 22 20  2  0
 22 21  1  0
 23 25  1  0
 24 23  2  0
 24 26  1  0
 25 27  2  0
 26 28  2  0
 28 27  1  0
M  RAD  8   5   3   6   3   7   3   8   2  10   3  12   3  13   3  14   3
M  RAD  8  15   2  16   3  18   2  20   2  21   2  22   2  24   2  25   2
M  RAD  3  26   2  27   2  28   2
M  END
>  <vina_score>  (4) 
-6.2999999999999998

>  <pose_id>  (4) 
4

$$$$

     RDKit          3D

 28 30  0  0  1  0  0  0  0  0999 V2000
   22.4910   10.9620   15.2500 N   0  0  0  0  0  0  0  0  0  0  0  0
   22.8010   12.0050   14.3900 C   0  0  0  0  0  0  0  0  0  0  0  0
   23.4940   12.9460   14.7740 O   0  0  0  0  0  0  0  0  0  0  0  0
   22.1310   10.1030   14.8550 H   0  0  0  0  0  0  0  0  0  0  0  0
   23.0550   10.9000   16.5820 C   0  0  0  0  0  2  0  0  0  0  0  0
   22.2950    9.9300   17.4840 C   0  0  0  0  0  2  0  0  0  0  0  0
   22.6000   10.1530   18.9670 C   0  0  0  0  0  2  0  0  0  0  0  0
   21.4440   10.8440   19.6740 C   0  0  0  0  0  1  0  0  0  0  0  0
   22.2140   11.8680   12.9340 C   0  0  2  0  0  0  0  0  0  0  0  0
   23.1550   10.9840   12.0720 C   0  0  0  0  0  2  0  0  0  0  0  0
   22.0270   13.1910   12.2460 N   0  0  0  0  0  0  0  0  0  0  0  0
   24.4840   11.6620   11.7650 C   0  0  0  0  0  2  0  0  0  0  0  0
   23.2960   13.8720   11.9350 C   0  0  0  0  0  2  0  0  0  0  0  0
   24.2330   13.0030   11.1010 C   0  0  0  0  0  2  0  0  0  0  0  0
   20.8620   11.1200   13.0250 C   0  0  0  0  0  1  0  0  0  0  0  0
   21.0810   14.0970   12.9320 C   0  0  0  0  0  2  0  0  0  0  0  0
   20.0480   14.7350   12.0100 C   0  0  0  0  0  0  0  0  0  0  0  0
   20.5040   15.3570   10.8290 C   0  0  0  0  0  3  0  0  0  0  0  0
   18.6650   14.7330   12.2960 C   0  0  0  0  0  0  0  0  0  0  0  0
   19.6150   15.9610    9.9420 C   0  0  0  0  0  3  0  0  0  0  0  0
   17.7850   15.3490   11.3840 C   0  0  0  0  0  3  0  0  0  0  0  0
   18.2530   15.9560   10.2190 C   0  0  0  0  0  3  0  0  0  0  0  0
   18.0970   14.1230   13.5070 C   0  0  0  0  0  0  0  0  0  0  0  0
   17.9760   14.8640   14.6930 C   0  0  0  0  0  3  0  0  0  0  0  0
   17.6330   12.8000   13.4920 C   0  0  0  0  0  3  0  0  0  0  0  0
   17.4090   14.2930   15.8350 C   0  0  0  0  0  3  0  0  0  0  0  0
   17.0640   12.2290   14.6340 C   0  0  0  0  0  3  0  0  0  0  0  0
   16.9520   12.9770   15.8040 C   0  0  0  0  0  3  0  0  0  0  0  0
  1  5  1  0
  2  3  2  0
  2  1  1  0
  4  1  1  0
  5  6  1  0
  6  7  1  0
  7  8  1  0
  9 15  1  1
  9  2  1  0
 10  9  1  0
 11 16  1  0
 11  9  1  0
 12 10  1  0
 13 11  1  0
 14 12  1  0
 14 13  1  0
 17 19  1  0
 17 16  1  0
 18 17  2  0
 19 23  1  0
 20 22  2  0
 20 18  1  0
 21 19  2  0
 22 21  1  0
 23 24  2  0
 24 26  1  0
 25 23  1  0
 25 27  2  0
 27 28  1  0
 28 26  2  0
M  RAD  8   5   3   6   3   7   3   8   2  10   3  12   3  13   3  14   3
M  RAD  8  15   2  16   3  18   2  20   2  21   2  22   2  24   2  25   2
M  RAD  3  26   2  27   2  28   2
M  END
>  <vina_score>  (5) 
-6.2549999999999999

>  <pose_id>  (5) 
5

$$$$
