
     RDKit          3D

 29 32  0  0  1  0  0  0  0  0999 V2000
   17.8320   11.6840   15.6890 C   0  0  0  0  0  3  0  0  0  0  0  0
   18.4210   13.0990   15.8190 C   0  0  0  0  0  2  0  0  0  0  0  0
   17.6410   14.1410   15.0180 C   0  0  0  0  0  2  0  0  0  0  0  0
   17.5780   13.7250   13.6230 N   0  0  0  0  0  0  0  0  0  0  0  0
   16.9890   12.4090   13.3980 C   0  0  0  0  0  2  0  0  0  0  0  0
   16.6800   11.6320   14.6780 C   0  0  0  0  0  2  0  0  0  0  0  0
   17.3510   11.1300   17.0280 C   0  0  0  0  0  0  0  0  0  0  0  0
   17.9840    9.9650   17.3930 N   0  0  0  0  0  0  0  0  0  0  0  0
   16.4810   11.6550   17.7130 O   0  0  0  0  0  0  0  0  0  0  0  0
   18.7110    9.5810   16.8010 H   0  0  0  0  0  0  0  0  0  0  0  0
   17.6850    9.2600   18.6320 C   0  0  0  0  0  3  0  0  0  0  0  0
   17.7880    7.7450   18.4100 C   0  0  0  0  0  1  0  0  0  0  0  0
   18.5690    9.8290   19.7430 C   0  0  0  0  0  0  0  0  0  0  0  0
   19.9670    9.8820   19.5830 C   0  0  0  0  0  3  0  0  0  0  0  0
   17.9870   10.3700   20.9360 C   0  0  0  0  0  0  0  0  0  0  0  0
   20.7870   10.4250   20.5670 C   0  0  0  0  0  3  0  0  0  0  0  0
   16.5950   10.3980   21.1990 C   0  0  0  0  0  3  0  0  0  0  0  0
   18.8410   10.9230   21.9270 C   0  0  0  0  0  0  0  0  0  0  0  0
   20.2270   10.9380   21.7300 C   0  0  0  0  0  3  0  0  0  0  0  0
   16.0730   10.9400   22.3780 C   0  0  0  0  0  3  0  0  0  0  0  0
   18.3020   11.4620   23.1070 C   0  0  0  0  0  3  0  0  0  0  0  0
   16.9270   11.4710   23.3320 C   0  0  0  0  0  3  0  0  0  0  0  0
   17.1540   14.7650   12.6800 C   0  0  0  0  0  2  0  0  0  0  0  0
   18.1590   15.1690   11.6210 C   0  0  0  0  0  0  0  0  0  0  0  0
   19.5350   14.9970   11.8270 C   0  0  0  0  0  3  0  0  0  0  0  0
   17.7280   15.7440   10.4150 C   0  0  0  0  0  3  0  0  0  0  0  0
   20.4550   15.3820   10.8490 C   0  0  0  0  0  3  0  0  0  0  0  0
   18.6470   16.1280    9.4380 C   0  0  0  0  0  3  0  0  0  0  0  0
   20.0110   15.9460    9.6540 C   0  0  0  0  0  3  0  0  0  0  0  0
  1  2  1  0
  1  7  1  0
  3  2  1  0
  4  3  1  0
  5  4  1  0
  5  6  1  0
  6  1  1  0
  7  8  1  0
  7  9  2  0
  8 11  1  0
 10  8  1  0
 11 12  1  0
 11 13  1  0
 13 15  1  0
 14 13  2  0
 14 16  1  0
 15 17  2  0
 15 18  1  0
 16 19  2  0
 17 20  1  0
 18 21  2  0
 19 18  1  0
 20 22  2  0
 21 22  1  0
 23  4  1  0
 24 25  2  0
 24 23  1  0
 26 24  1  0
 27 25  1  0
 28 29  1  0
 28 26  2  0
 29 27  2  0
M  RAD  8   1   2   2   3   3   3   5   3   6   3  11   2  12   2  14   2
M  RAD  8  16   2  17   2  19   2  20   2  21   2  22   2  23   3  25   2
M  RAD  4  26   2  27   2  28   2  29   2
M  END
>  <vina_score>  (1) 
-8.5850000000000009

>  <pose_id>  (1) 
1

$$$$

     RDKit          3D

 29 32  0  0  1  0  0  0  0  0999 V2000
   19.2810   11.2790   16.4180 C   0  0  0  0  0  3  0  0  0  0  0  0
   18.4900   12.5290   16.8410 C   0  0  0  0  0  2  0  0  0  0  0  0
   17.0820   12.5660   16.2510 C   0  0  0  0  0  2  0  0  0  0  0  0
   17.1670   12.4660   14.7990 N   0  0  0  0  0  0  0  0  0  0  0  0
   17.8620   11.2830   14.3030 C   0  0  0  0  0  2  0  0  0  0  0  0
   18.5130   10.4340   15.3950 C   0  0  0  0  0  2  0  0  0  0  0  0
   19.6630   10.4030   17.6090 C   0  0  0  0  0  0  0  0  0  0  0  0
   19.5740   11.0570   18.8160 N   0  0  0  0  0  0  0  0  0  0  0  0
   20.0230    9.2360   17.5120 O   0  0  0  0  0  0  0  0  0  0  0  0
   19.2520   12.0170   18.8440 H   0  0  0  0  0  0  0  0  0  0  0  0
   19.8890   10.4160   20.0840 C   0  0  0  0  0  3  0  0  0  0  0  0
   21.2620   10.8890   20.5820 C   0  0  0  0  0  1  0  0  0  0  0  0
   18.7220   10.6390   21.0480 C   0  0  0  0  0  0  0  0  0  0  0  0
   18.8080   11.6180   22.0550 C   0  0  0  0  0  3  0  0  0  0  0  0
   17.5040    9.8980   20.9030 C   0  0  0  0  0  0  0  0  0  0  0  0
   17.7460   11.8600   22.9210 C   0  0  0  0  0  3  0  0  0  0  0  0
   17.2880    8.9070   19.9140 C   0  0  0  0  0  3  0  0  0  0  0  0
   16.4300   10.1610   21.7950 C   0  0  0  0  0  0  0  0  0  0  0  0
   16.5690   11.1340   22.7920 C   0  0  0  0  0  3  0  0  0  0  0  0
   16.0800    8.2110   19.8100 C   0  0  0  0  0  3  0  0  0  0  0  0
   15.2220    9.4530   21.6790 C   0  0  0  0  0  3  0  0  0  0  0  0
   15.0470    8.4840   20.6940 C   0  0  0  0  0  3  0  0  0  0  0  0
   15.9390   12.8140   14.0770 C   0  0  0  0  0  2  0  0  0  0  0  0
   16.0720   13.8380   12.9700 C   0  0  0  0  0  0  0  0  0  0  0  0
   14.9670   14.2080   12.1900 C   0  0  0  0  0  3  0  0  0  0  0  0
   17.3160   14.4260   12.6900 C   0  0  0  0  0  3  0  0  0  0  0  0
   15.1000   15.1460   11.1640 C   0  0  0  0  0  3  0  0  0  0  0  0
   17.4490   15.3630   11.6650 C   0  0  0  0  0  3  0  0  0  0  0  0
   16.3410   15.7240   10.9020 C   0  0  0  0  0  3  0  0  0  0  0  0
  1  2  1  0
  1  7  1  0
  3  2  1  0
  4  3  1  0
  5  4  1  0
  5  6  1  0
  6  1  1  0
  7  8  1  0
  8 10  1  0
  8 11  1  0
  9  7  2  0
 11 12  1  0
 11 13  1  0
 13 14  2  0
 14 16  1  0
 15 13  1  0
 15 18  1  0
 17 15  2  0
 18 19  1  0
 19 16  2  0
 20 17  1  0
 20 22  2  0
 21 18  2  0
 22 21  1  0
 23  4  1  0
 24 23  1  0
 25 24  2  0
 26 24  1  0
 27 25  1  0
 28 26  2  0
 29 27  2  0
 29 28  1  0
M  RAD  8   1   2   2   3   3   3   5   3   6   3  11   2  12   2  14   2
M  RAD  8  16   2  17   2  19   2  20   2  21   2  22   2  23   3  25   2
M  RAD  4  26   2  27   2  28   2  29   2
M  END
>  <vina_score>  (2) 
-8.5489999999999995

>  <pose_id>  (2) 
2

$$$$

     RDKit          3D

 29 32  0  0  1  0  0  0  0  0999 V2000
   18.3610   11.5750   15.6640 C   0  0  0  0  0  3  0  0  0  0  0  0
   18.1480   12.4250   16.9280 C   0  0  0  0  0  2  0  0  0  0  0  0
   18.9600   11.9250   18.1220 C   0  0  0  0  0  2  0  0  0  0  0  0
   18.6370   10.5260   18.3700 N   0  0  0  0  0  0  0  0  0  0  0  0
   18.8540    9.6330   17.2360 C   0  0  0  0  0  2  0  0  0  0  0  0
   19.2360   10.3460   15.9400 C   0  0  0  0  0  2  0  0  0  0  0  0
   18.9710   12.3800   14.5190 C   0  0  0  0  0  0  0  0  0  0  0  0
   20.0570   13.1320   14.9020 N   0  0  0  0  0  0  0  0  0  0  0  0
   18.5410   12.3730   13.3710 O   0  0  0  0  0  0  0  0  0  0  0  0
   20.3860   13.0880   15.8590 H   0  0  0  0  0  0  0  0  0  0  0  0
   20.7970   13.9770   13.9750 C   0  0  0  0  0  3  0  0  0  0  0  0
   20.9700   15.3800   14.5710 C   0  0  0  0  0  1  0  0  0  0  0  0
   22.0900   13.2580   13.5840 C   0  0  0  0  0  0  0  0  0  0  0  0
   22.6400   12.2760   14.4300 C   0  0  0  0  0  3  0  0  0  0  0  0
   22.7270   13.5300   12.3300 C   0  0  0  0  0  0  0  0  0  0  0  0
   23.7970   11.5870   14.0790 C   0  0  0  0  0  3  0  0  0  0  0  0
   22.2540   14.4750   11.3860 C   0  0  0  0  0  3  0  0  0  0  0  0
   23.9050   12.8140   11.9890 C   0  0  0  0  0  0  0  0  0  0  0  0
   24.4240   11.8570   12.8690 C   0  0  0  0  0  3  0  0  0  0  0  0
   22.9090   14.7030   10.1720 C   0  0  0  0  0  3  0  0  0  0  0  0
   24.5530   13.0550   10.7660 C   0  0  0  0  0  3  0  0  0  0  0  0
   24.0600   13.9940    9.8630 C   0  0  0  0  0  3  0  0  0  0  0  0
   19.0810   10.0040   19.6660 C   0  0  0  0  0  2  0  0  0  0  0  0
   18.3300   10.4930   20.8860 C   0  0  0  0  0  0  0  0  0  0  0  0
   16.9550   10.2550   21.0330 C   0  0  0  0  0  3  0  0  0  0  0  0
   18.9960   11.2130   21.8910 C   0  0  0  0  0  3  0  0  0  0  0  0
   16.2680   10.7180   22.1570 C   0  0  0  0  0  3  0  0  0  0  0  0
   18.3090   11.6750   23.0140 C   0  0  0  0  0  3  0  0  0  0  0  0
   16.9450   11.4270   23.1480 C   0  0  0  0  0  3  0  0  0  0  0  0
  1  7  1  0
  1  6  1  0
  1  2  1  0
  2  3  1  0
  3  4  1  0
  4 23  1  0
  5  4  1  0
  6  5  1  0
  7  8  1  0
  8 10  1  0
  9  7  2  0
 11 12  1  0
 11  8  1  0
 13 11  1  0
 13 14  2  0
 15 13  1  0
 16 14  1  0
 17 15  2  0
 18 15  1  0
 18 19  1  0
 19 16  2  0
 20 17  1  0
 21 18  2  0
 22 20  2  0
 22 21  1  0
 23 24  1  0
 24 25  2  0
 24 26  1  0
 25 27  1  0
 26 28  2  0
 27 29  2  0
 28 29  1  0
M  RAD  8   1   2   2   3   3   3   5   3   6   3  11   2  12   2  14   2
M  RAD  8  16   2  17   2  19   2  20   2  21   2  22   2  23   3  25   2
M  RAD  4  26   2  27   2  28   2  29   2
M  END
>  <vina_score>  (3) 
-8.4459999999999997

>  <pose_id>  (3) 
3

$$$$

     RDKit          3D

 29 32  0  0  1  0  0  0  0  0999 V2000
   18.2390   11.3750   14.3360 C   0  0  0  0  0  3  0  0  0  0  0  0
   19.1790   11.9630   15.4030 C   0  0  0  0  0  2  0  0  0  0  0  0
   20.6280   12.0600   14.9270 C   0  0  0  0  0  2  0  0  0  0  0  0
   21.0810   10.7430   14.4980 N   0  0  0  0  0  0  0  0  0  0  0  0
   20.2740   10.1250   13.4510 C   0  0  0  0  0  2  0  0  0  0  0  0
   19.0060   10.9000   13.0960 C   0  0  0  0  0  2  0  0  0  0  0  0
   17.1540   12.3610   13.9100 C   0  0  0  0  0  0  0  0  0  0  0  0
   17.6560   13.5720   13.4900 N   0  0  0  0  0  0  0  0  0  0  0  0
   15.9540   12.1160   13.9420 O   0  0  0  0  0  0  0  0  0  0  0  0
   18.6570   13.7190   13.4630 H   0  0  0  0  0  0  0  0  0  0  0  0
   16.8040   14.6630   13.0370 C   0  0  0  0  0  3  0  0  0  0  0  0
   16.6340   15.6950   14.1600 C   0  0  0  0  0  1  0  0  0  0  0  0
   17.3610   15.2030   11.7190 C   0  0  0  0  0  0  0  0  0  0  0  0
   16.4960   15.7420   10.7490 C   0  0  0  0  0  3  0  0  0  0  0  0
   18.7730   15.2220   11.4760 C   0  0  0  0  0  0  0  0  0  0  0  0
   16.9850   16.2690    9.5570 C   0  0  0  0  0  3  0  0  0  0  0  0
   19.7430   14.7320   12.3850 C   0  0  0  0  0  3  0  0  0  0  0  0
   19.2530   15.7660   10.2550 C   0  0  0  0  0  0  0  0  0  0  0  0
   18.3520   16.2770    9.3130 C   0  0  0  0  0  3  0  0  0  0  0  0
   21.1120   14.7750   12.1050 C   0  0  0  0  0  3  0  0  0  0  0  0
   20.6310   15.8000    9.9870 C   0  0  0  0  0  3  0  0  0  0  0  0
   21.5560   15.3080   10.9050 C   0  0  0  0  0  3  0  0  0  0  0  0
   22.5300   10.6070   14.3270 C   0  0  0  0  0  2  0  0  0  0  0  0
   23.1830   11.5310   13.3190 C   0  0  0  0  0  0  0  0  0  0  0  0
   23.1210   11.2600   11.9450 C   0  0  0  0  0  3  0  0  0  0  0  0
   23.8810   12.6710   13.7470 C   0  0  0  0  0  3  0  0  0  0  0  0
   23.7340   12.1110   11.0230 C   0  0  0  0  0  3  0  0  0  0  0  0
   24.4930   13.5210   12.8250 C   0  0  0  0  0  3  0  0  0  0  0  0
   24.4190   13.2420   11.4630 C   0  0  0  0  0  3  0  0  0  0  0  0
  1  7  1  0
  1  2  1  0
  3  2  1  0
  4  3  1  0
  5  4  1  0
  6  5  1  0
  6  1  1  0
  7  9  2  0
  8  7  1  0
 10  8  1  0
 11  8  1  0
 11 12  1  0
 13 11  1  0
 14 13  2  0
 15 13  1  0
 15 17  2  0
 16 14  1  0
 18 15  1  0
 19 16  2  0
 19 18  1  0
 20 17  1  0
 21 18  2  0
 21 22  1  0
 22 20  2  0
 23  4  1  0
 24 26  1  0
 24 23  1  0
 25 24  2  0
 27 29  2  0
 27 25  1  0
 28 26  2  0
 29 28  1  0
M  RAD  8   1   2   2   3   3   3   5   3   6   3  11   2  12   2  14   2
M  RAD  8  16   2  17   2  19   2  20   2  21   2  22   2  23   3  25   2
M  RAD  4  26   2  27   2  28   2  29   2
M  END
>  <vina_score>  (4) 
-8.4199999999999999

>  <pose_id>  (4) 
4

$$$$

     RDKit          3D

 29 32  0  0  1  0  0  0  0  0999 V2000
   18.0910   11.4310   15.7620 C   0  0  0  0  0  3  0  0  0  0  0  0
   18.6290   11.1180   14.3550 C   0  0  0  0  0  2  0  0  0  0  0  0
   19.5840   12.1910   13.8340 C   0  0  0  0  0  2  0  0  0  0  0  0
   18.9140   13.4850   13.8630 N   0  0  0  0  0  0  0  0  0  0  0  0
   18.4100   13.8880   15.1720 C   0  0  0  0  0  2  0  0  0  0  0  0
   18.5380   12.8140   16.2520 C   0  0  0  0  0  2  0  0  0  0  0  0
   18.5020   10.3780   16.7880 C   0  0  0  0  0  0  0  0  0  0  0  0
   18.8720   10.9160   18.0000 N   0  0  0  0  0  0  0  0  0  0  0  0
   18.5140    9.1730   16.5660 O   0  0  0  0  0  0  0  0  0  0  0  0
   18.8260   11.9170   18.1400 H   0  0  0  0  0  0  0  0  0  0  0  0
   19.3000   10.0980   19.1260 C   0  0  0  0  0  3  0  0  0  0  0  0
   20.7910   10.3310   19.4050 C   0  0  0  0  0  1  0  0  0  0  0  0
   18.3570   10.3570   20.3030 C   0  0  0  0  0  0  0  0  0  0  0  0
   18.6400   11.3790   21.2290 C   0  0  0  0  0  3  0  0  0  0  0  0
   17.1460    9.6050   20.4490 C   0  0  0  0  0  0  0  0  0  0  0  0
   17.7800   11.6540   22.2870 C   0  0  0  0  0  3  0  0  0  0  0  0
   16.7410    8.5710   19.5690 C   0  0  0  0  0  3  0  0  0  0  0  0
   16.2800    9.9020   21.5350 C   0  0  0  0  0  0  0  0  0  0  0  0
   16.6110   10.9180   22.4390 C   0  0  0  0  0  3  0  0  0  0  0  0
   15.5480    7.8660   19.7500 C   0  0  0  0  0  3  0  0  0  0  0  0
   15.0840    9.1840   21.7050 C   0  0  0  0  0  3  0  0  0  0  0  0
   14.7190    8.1720   20.8190 C   0  0  0  0  0  3  0  0  0  0  0  0
   19.5740   14.5470   13.0970 C   0  0  0  0  0  2  0  0  0  0  0  0
   18.8260   15.0780   11.8920 C   0  0  0  0  0  0  0  0  0  0  0  0
   19.5120   15.5210   10.7530 C   0  0  0  0  0  3  0  0  0  0  0  0
   17.4230   15.1530   11.9010 C   0  0  0  0  0  3  0  0  0  0  0  0
   18.8150   16.0190    9.6500 C   0  0  0  0  0  3  0  0  0  0  0  0
   16.7280   15.6500   10.7990 C   0  0  0  0  0  3  0  0  0  0  0  0
   17.4230   16.0820    9.6720 C   0  0  0  0  0  3  0  0  0  0  0  0
  1  6  1  0
  1  7  1  0
  2  1  1  0
  3  4  1  0
  3  2  1  0
  4  5  1  0
  5  6  1  0
  7  8  1  0
  8 10  1  0
  8 11  1  0
  9  7  2  0
 11 12  1  0
 11 13  1  0
 13 15  1  0
 13 14  2  0
 14 16  1  0
 15 18  1  0
 16 19  2  0
 17 20  1  0
 17 15  2  0
 18 21  2  0
 18 19  1  0
 20 22  2  0
 22 21  1  0
 23  4  1  0
 24 26  1  0
 24 23  1  0
 25 24  2  0
 27 29  2  0
 27 25  1  0
 28 26  2  0
 29 28  1  0
M  RAD  8   1   2   2   3   3   3   5   3   6   3  11   2  12   2  14   2
M  RAD  8  16   2  17   2  19   2  20   2  21   2  22   2  23   3  25   2
M  RAD  4  26   2  27   2  28   2  29   2
M  END
>  <vina_score>  (5) 
-8.3309999999999995

>  <pose_id>  (5) 
5

$$$$
