
     RDKit          3D

 26 28  0  0  1  0  0  0  0  0999 V2000
   21.5370    9.9570   18.6690 S   0  0  1  0  0  0  0  0  0  0  0  0
   21.3760    8.5770   18.2690 O   0  0  0  0  0  0  0  0  0  0  0  0
   22.7830   10.4560   19.2050 O   0  0  0  0  0  0  0  0  0  0  0  0
   21.1460   10.8850   17.3410 N   0  0  0  0  0  0  0  0  0  0  0  0
   21.0020   11.8750   17.5150 H   0  0  0  0  0  0  0  0  0  0  0  0
   21.4180   10.4120   15.9850 C   0  0  0  0  0  3  0  0  0  0  0  0
   20.1110   10.4550   15.1920 C   0  0  0  0  0  1  0  0  0  0  0  0
   22.5030   11.2350   15.3160 C   0  0  0  0  0  0  0  0  0  0  0  0
   23.8110   11.2170   15.8260 C   0  0  0  0  0  3  0  0  0  0  0  0
   22.2330   12.0370   14.1940 C   0  0  0  0  0  3  0  0  0  0  0  0
   24.8200   11.9770   15.2320 C   0  0  0  0  0  3  0  0  0  0  0  0
   23.2440   12.7940   13.6000 C   0  0  0  0  0  3  0  0  0  0  0  0
   24.5360   12.7630   14.1180 C   0  0  0  0  0  3  0  0  0  0  0  0
   20.2400   10.3310   19.8230 C   0  0  0  0  0  0  0  0  0  0  0  0
   20.5620   10.8410   21.0960 C   0  0  0  0  0  3  0  0  0  0  0  0
   18.9120   10.0910   19.4480 C   0  0  0  0  0  3  0  0  0  0  0  0
   19.5470   11.1410   22.0100 C   0  0  0  0  0  3  0  0  0  0  0  0
   17.9180   10.3950   20.3650 C   0  0  0  0  0  0  0  0  0  0  0  0
   18.2380   10.9140   21.6220 C   0  0  0  0  0  0  0  0  0  0  0  0
   16.4180   10.2500   20.2420 C   0  0  2  0  0  0  0  0  0  0  0  0
   17.0660   11.1330   22.3500 N   0  0  0  0  0  0  0  0  0  0  0  0
   15.9320   10.7730   21.6170 C   0  0  0  0  0  0  0  0  0  0  0  0
   14.7680   10.8520   21.9820 O   0  0  0  0  0  0  0  0  0  0  0  0
   16.0040    8.7880   20.0730 C   0  0  0  0  0  1  0  0  0  0  0  0
   15.8480   11.1290   19.1310 C   0  0  0  0  0  1  0  0  0  0  0  0
   17.0320   11.6580   23.6880 C   0  0  0  0  0  1  0  0  0  0  0  0
  1  3  2  0
  1 14  1  0
  2  1  2  0
  4  5  1  0
  1  4  1  6
  6  7  1  0
  6  4  1  0
  8  9  2  0
  8  6  1  0
 10  8  1  0
 11  9  1  0
 12 13  1  0
 12 10  2  0
 13 11  2  0
 14 15  1  0
 15 17  2  0
 16 14  2  0
 16 18  1  0
 18 19  2  0
 19 17  1  0
 19 21  1  0
 20 18  1  0
 20 22  1  0
 21 26  1  0
 22 23  2  0
 22 21  1  0
 20 24  1  6
 25 20  1  0
M  RAD  8   6   2   7   2   9   2  10   2  11   2  12   2  13   2  15   2
M  RAD  5  16   2  17   2  24   2  25   2  26   2
M  END
>  <vina_score>  (1) 
-7.6360000000000001

>  <pose_id>  (1) 
1

$$$$

     RDKit          3D

 26 28  0  0  1  0  0  0  0  0999 V2000
   17.5360   12.3930   14.0230 S   0  0  1  0  0  0  0  0  0  0  0  0
   17.2340   12.3940   15.4370 O   0  0  0  0  0  0  0  0  0  0  0  0
   16.5860   11.9250   13.0400 O   0  0  0  0  0  0  0  0  0  0  0  0
   17.9520   13.9560   13.6250 N   0  0  0  0  0  0  0  0  0  0  0  0
   18.8780   14.2590   13.9120 H   0  0  0  0  0  0  0  0  0  0  0  0
   17.2360   14.6830   12.5780 C   0  0  0  0  0  3  0  0  0  0  0  0
   16.4790   15.8410   13.2310 C   0  0  0  0  0  1  0  0  0  0  0  0
   18.1810   15.1750   11.4970 C   0  0  0  0  0  0  0  0  0  0  0  0
   19.5690   15.0610   11.6760 C   0  0  0  0  0  3  0  0  0  0  0  0
   17.7040   15.7600   10.3120 C   0  0  0  0  0  3  0  0  0  0  0  0
   20.4540   15.5190   10.6980 C   0  0  0  0  0  3  0  0  0  0  0  0
   18.5910   16.2150    9.3360 C   0  0  0  0  0  3  0  0  0  0  0  0
   19.9650   16.0930    9.5280 C   0  0  0  0  0  3  0  0  0  0  0  0
   19.0560   11.4990   13.8050 C   0  0  0  0  0  0  0  0  0  0  0  0
   19.0510   10.0910   13.8460 C   0  0  0  0  0  3  0  0  0  0  0  0
   20.2410   12.2200   13.6150 C   0  0  0  0  0  3  0  0  0  0  0  0
   20.2420    9.3800   13.6720 C   0  0  0  0  0  3  0  0  0  0  0  0
   21.4130   11.4990   13.4420 C   0  0  0  0  0  0  0  0  0  0  0  0
   21.4050   10.1020   13.4690 C   0  0  0  0  0  0  0  0  0  0  0  0
   22.8230   11.9940   13.2150 C   0  0  2  0  0  0  0  0  0  0  0  0
   22.7020    9.6230   13.2720 N   0  0  0  0  0  0  0  0  0  0  0  0
   23.6150   10.6680   13.1090 C   0  0  0  0  0  0  0  0  0  0  0  0
   24.8180   10.5650   12.9160 O   0  0  0  0  0  0  0  0  0  0  0  0
   23.3350   12.8040   14.4070 C   0  0  0  0  0  1  0  0  0  0  0  0
   22.9520   12.7730   11.9080 C   0  0  0  0  0  1  0  0  0  0  0  0
   23.0530    8.2280   13.2450 C   0  0  0  0  0  1  0  0  0  0  0  0
  1  2  2  0
  3  1  2  0
  4  5  1  0
  1  4  1  6
  6  7  1  0
  6  4  1  0
  8  9  2  0
  8  6  1  0
 10  8  1  0
 11  9  1  0
 12 13  1  0
 12 10  2  0
 13 11  2  0
 14 15  1  0
 14  1  1  0
 16 14  2  0
 17 15  2  0
 18 19  2  0
 18 16  1  0
 19 17  1  0
 20 18  1  0
 20 24  1  1
 21 19  1  0
 22 20  1  0
 22 21  1  0
 23 22  2  0
 25 20  1  0
 26 21  1  0
M  RAD  8   6   2   7   2   9   2  10   2  11   2  12   2  13   2  15   2
M  RAD  5  16   2  17   2  24   2  25   2  26   2
M  END
>  <vina_score>  (2) 
-7.6230000000000002

>  <pose_id>  (2) 
2

$$$$

     RDKit          3D

 26 28  0  0  1  0  0  0  0  0999 V2000
   16.7570   15.4990   14.5960 S   0  0  1  0  0  0  0  0  0  0  0  0
   17.7370   15.8860   15.5860 O   0  0  0  0  0  0  0  0  0  0  0  0
   15.3390   15.6660   14.8200 O   0  0  0  0  0  0  0  0  0  0  0  0
   17.1500   16.3110   13.1960 N   0  0  0  0  0  0  0  0  0  0  0  0
   17.6760   17.1720   13.3110 H   0  0  0  0  0  0  0  0  0  0  0  0
   17.1330   15.6320   11.9010 C   0  0  0  0  0  3  0  0  0  0  0  0
   16.0450   16.2730   11.0380 C   0  0  0  0  0  1  0  0  0  0  0  0
   18.4890   15.6920   11.2230 C   0  0  0  0  0  0  0  0  0  0  0  0
   18.6140   16.2910    9.9590 C   0  0  0  0  0  3  0  0  0  0  0  0
   19.6380   15.1500   11.8230 C   0  0  0  0  0  3  0  0  0  0  0  0
   19.8500   16.3450    9.3130 C   0  0  0  0  0  3  0  0  0  0  0  0
   20.8730   15.2070   11.1760 C   0  0  0  0  0  3  0  0  0  0  0  0
   20.9790   15.8050    9.9230 C   0  0  0  0  0  3  0  0  0  0  0  0
   17.0620   13.7990   14.1820 C   0  0  0  0  0  0  0  0  0  0  0  0
   15.9890   12.9670   13.8090 C   0  0  0  0  0  3  0  0  0  0  0  0
   18.3730   13.3120   14.2540 C   0  0  0  0  0  3  0  0  0  0  0  0
   16.2210   11.6280   13.4780 C   0  0  0  0  0  3  0  0  0  0  0  0
   18.5860   11.9830   13.9210 C   0  0  0  0  0  0  0  0  0  0  0  0
   17.5230   11.1620   13.5380 C   0  0  0  0  0  0  0  0  0  0  0  0
   19.8730   11.1900   13.9010 C   0  0  2  0  0  0  0  0  0  0  0  0
   18.0000    9.8790   13.2570 N   0  0  0  0  0  0  0  0  0  0  0  0
   19.3820    9.7950   13.4400 C   0  0  0  0  0  0  0  0  0  0  0  0
   20.0850    8.8090   13.2700 O   0  0  0  0  0  0  0  0  0  0  0  0
   20.4910   11.0820   15.2950 C   0  0  0  0  0  1  0  0  0  0  0  0
   20.8690   11.7430   12.8840 C   0  0  0  0  0  1  0  0  0  0  0  0
   17.1700    8.7820   12.8360 C   0  0  0  0  0  1  0  0  0  0  0  0
  1  3  2  0
  1  2  2  0
  4  5  1  0
  1  4  1  6
  6  7  1  0
  6  4  1  0
  8 10  1  0
  8  6  1  0
  9  8  2  0
 11 13  2  0
 11  9  1  0
 12 10  2  0
 13 12  1  0
 14 16  2  0
 14  1  1  0
 15 14  1  0
 17 19  1  0
 17 15  2  0
 18 16  1  0
 19 18  2  0
 20 18  1  0
 20 24  1  1
 21 22  1  0
 21 19  1  0
 22 20  1  0
 23 22  2  0
 25 20  1  0
 26 21  1  0
M  RAD  8   6   2   7   2   9   2  10   2  11   2  12   2  13   2  15   2
M  RAD  5  16   2  17   2  24   2  25   2  26   2
M  END
>  <vina_score>  (3) 
-7.609

>  <pose_id>  (3) 
3

$$$$

     RDKit          3D

 26 28  0  0  1  0  0  0  0  0999 V2000
   15.5370   14.6300   13.8580 S   0  0  1  0  0  0  0  0  0  0  0  0
   14.9520   15.4760   14.8740 O   0  0  0  0  0  0  0  0  0  0  0  0
   14.7260   13.8030   12.9930 O   0  0  0  0  0  0  0  0  0  0  0  0
   16.4650   15.6200   12.8910 N   0  0  0  0  0  0  0  0  0  0  0  0
   17.1480   16.1990   13.3700 H   0  0  0  0  0  0  0  0  0  0  0  0
   16.5980   15.3630   11.4580 C   0  0  0  0  0  3  0  0  0  0  0  0
   15.6810   16.3310   10.7100 C   0  0  0  0  0  1  0  0  0  0  0  0
   18.0390   15.4970   11.0020 C   0  0  0  0  0  0  0  0  0  0  0  0
   18.3280   16.0810    9.7570 C   0  0  0  0  0  3  0  0  0  0  0  0
   19.1080   15.0380   11.7890 C   0  0  0  0  0  3  0  0  0  0  0  0
   19.6460   16.2010    9.3130 C   0  0  0  0  0  3  0  0  0  0  0  0
   20.4250   15.1620   11.3440 C   0  0  0  0  0  3  0  0  0  0  0  0
   20.6940   15.7440   10.1080 C   0  0  0  0  0  3  0  0  0  0  0  0
   16.7410   13.5950   14.6550 C   0  0  0  0  0  0  0  0  0  0  0  0
   16.8810   13.6370   16.0560 C   0  0  0  0  0  3  0  0  0  0  0  0
   17.5460   12.7650   13.8660 C   0  0  0  0  0  3  0  0  0  0  0  0
   17.8240   12.8230   16.6920 C   0  0  0  0  0  3  0  0  0  0  0  0
   18.4740   11.9640   14.5120 C   0  0  0  0  0  0  0  0  0  0  0  0
   18.6030   11.9960   15.9030 C   0  0  0  0  0  0  0  0  0  0  0  0
   19.4640   10.9780   13.9330 C   0  0  2  0  0  0  0  0  0  0  0  0
   19.6010   11.1020   16.3010 N   0  0  0  0  0  0  0  0  0  0  0  0
   20.1690   10.4480   15.2060 C   0  0  0  0  0  0  0  0  0  0  0  0
   21.0590    9.6090   15.2350 O   0  0  0  0  0  0  0  0  0  0  0  0
   20.4850   11.6680   13.0290 C   0  0  0  0  0  1  0  0  0  0  0  0
   18.7660    9.8230   13.2170 C   0  0  0  0  0  1  0  0  0  0  0  0
   19.9950   10.8880   17.6680 C   0  0  0  0  0  1  0  0  0  0  0  0
  1 14  1  0
  1  2  2  0
  3  1  2  0
  4  5  1  0
  1  4  1  6
  6  7  1  0
  6  4  1  0
  8  6  1  0
  8 10  1  0
  9  8  2  0
 11  9  1  0
 11 13  2  0
 12 10  2  0
 13 12  1  0
 14 15  1  0
 15 17  2  0
 16 18  1  0
 16 14  2  0
 18 19  2  0
 19 21  1  0
 19 17  1  0
 20 18  1  0
 20 22  1  0
 21 26  1  0
 22 23  2  0
 22 21  1  0
 20 24  1  6
 25 20  1  0
M  RAD  8   6   2   7   2   9   2  10   2  11   2  12   2  13   2  15   2
M  RAD  5  16   2  17   2  24   2  25   2  26   2
M  END
>  <vina_score>  (4) 
-7.5810000000000004

>  <pose_id>  (4) 
4

$$$$

     RDKit          3D

 26 28  0  0  1  0  0  0  0  0999 V2000
   18.1760   12.9470   15.9510 S   0  0  1  0  0  0  0  0  0  0  0  0
   18.8440   12.7690   17.2210 O   0  0  0  0  0  0  0  0  0  0  0  0
   17.2520   11.9650   15.4300 O   0  0  0  0  0  0  0  0  0  0  0  0
   17.3750   14.4050   16.0350 N   0  0  0  0  0  0  0  0  0  0  0  0
   17.9600   15.2340   16.0750 H   0  0  0  0  0  0  0  0  0  0  0  0
   15.9720   14.5180   15.6420 C   0  0  0  0  0  3  0  0  0  0  0  0
   15.3080   15.5700   16.5310 C   0  0  0  0  0  1  0  0  0  0  0  0
   15.8330   14.8650   14.1710 C   0  0  0  0  0  0  0  0  0  0  0  0
   15.2190   13.9570   13.2920 C   0  0  0  0  0  3  0  0  0  0  0  0
   16.3160   16.0770   13.6510 C   0  0  0  0  0  3  0  0  0  0  0  0
   15.0930   14.2530   11.9340 C   0  0  0  0  0  3  0  0  0  0  0  0
   16.1870   16.3710   12.2920 C   0  0  0  0  0  3  0  0  0  0  0  0
   15.5750   15.4600   11.4350 C   0  0  0  0  0  3  0  0  0  0  0  0
   19.4300   13.2400   14.7270 C   0  0  0  0  0  0  0  0  0  0  0  0
   19.2180   14.2090   13.7270 C   0  0  0  0  0  3  0  0  0  0  0  0
   20.6060   12.4810   14.7700 C   0  0  0  0  0  3  0  0  0  0  0  0
   20.2010   14.4480   12.7620 C   0  0  0  0  0  3  0  0  0  0  0  0
   21.5700   12.7320   13.8070 C   0  0  0  0  0  0  0  0  0  0  0  0
   21.3650   13.7030   12.8240 C   0  0  0  0  0  0  0  0  0  0  0  0
   22.9220   12.0850   13.6070 C   0  0  2  0  0  0  0  0  0  0  0  0
   22.4790   13.7600   11.9820 N   0  0  0  0  0  0  0  0  0  0  0  0
   23.4580   12.8400   12.3660 C   0  0  0  0  0  0  0  0  0  0  0  0
   24.5420   12.6580   11.8290 O   0  0  0  0  0  0  0  0  0  0  0  0
   22.7920   10.5960   13.2860 C   0  0  0  0  0  1  0  0  0  0  0  0
   23.8520   12.3260   14.7940 C   0  0  0  0  0  1  0  0  0  0  0  0
   22.5990   14.6510   10.8590 C   0  0  0  0  0  1  0  0  0  0  0  0
  1  4  1  1
  1  2  2  0
  3  1  2  0
  4  5  1  0
  6  4  1  0
  6  7  1  0
  8  6  1  0
  9  8  2  0
 10  8  1  0
 11  9  1  0
 12 10  2  0
 13 11  2  0
 13 12  1  0
 14 16  2  0
 14  1  1  0
 15 14  1  0
 17 19  1  0
 17 15  2  0
 18 16  1  0
 19 18  2  0
 20 18  1  0
 20 25  1  1
 21 22  1  0
 21 19  1  0
 22 20  1  0
 23 22  2  0
 24 20  1  0
 26 21  1  0
M  RAD  8   6   2   7   2   9   2  10   2  11   2  12   2  13   2  15   2
M  RAD  5  16   2  17   2  24   2  25   2  26   2
M  END
>  <vina_score>  (5) 
-7.399

>  <pose_id>  (5) 
5

$$$$
