
     RDKit          3D

 23 25  0  0  1  0  0  0  0  0999 V2000
   20.4570   11.3590   15.0250 C   0  0  0  0  0  0  0  0  0  0  0  0
   20.1750   10.8940   16.6750 S   0  0  0  0  0  0  0  0  0  0  0  0
   21.7810   10.3070   16.7850 C   0  0  0  0  0  3  0  0  0  0  0  0
   22.5260   10.6660   15.6790 C   0  0  0  0  0  0  0  0  0  0  0  0
   21.7640   11.3360   14.7170 N   0  0  0  0  0  0  0  0  0  0  0  0
   19.4140   11.7090   14.2830 N   0  0  0  0  0  0  0  0  0  0  0  0
   18.8290   12.9980   14.3510 C   0  0  0  0  0  0  0  0  0  0  0  0
   19.3360   13.8690   15.0350 O   0  0  0  0  0  0  0  0  0  0  0  0
   17.6490   13.1940   13.4520 C   0  0  0  0  0  1  0  0  0  0  0  0
   19.2400   11.0870   13.5090 H   0  0  0  0  0  0  0  0  0  0  0  0
   22.3620   12.0030   13.5630 C   0  0  0  0  0  0  0  0  0  0  0  0
   22.7440   11.2110   12.4820 C   0  0  0  0  0  3  0  0  0  0  0  0
   22.5490   13.3810   13.5630 C   0  0  0  0  0  3  0  0  0  0  0  0
   23.3220   11.8200   11.3670 C   0  0  0  0  0  3  0  0  0  0  0  0
   23.1310   13.9820   12.4460 C   0  0  0  0  0  3  0  0  0  0  0  0
   23.5300   13.2070   11.3470 C   0  0  0  0  0  0  0  0  0  0  0  0
   24.1190   13.8670   10.1320 C   0  0  0  0  0  1  0  0  0  0  0  0
   23.9620   10.4410   15.6610 C   0  0  0  0  0  0  0  0  0  0  0  0
   24.8430   11.4670   16.0300 C   0  0  0  0  0  3  0  0  0  0  0  0
   24.4730    9.1900   15.2890 C   0  0  0  0  0  3  0  0  0  0  0  0
   26.2200   11.2460   16.0130 C   0  0  0  0  0  3  0  0  0  0  0  0
   25.8520    8.9750   15.2760 C   0  0  0  0  0  3  0  0  0  0  0  0
   26.7230   10.0020   15.6360 C   0  0  0  0  0  3  0  0  0  0  0  0
  1  6  1  0
  1  2  1  0
  2  3  1  0
  4 18  1  0
  4  3  2  0
  5  1  2  0
  5  4  1  0
  6  7  1  0
  7  8  2  0
  9  7  1  0
 10  6  1  0
 11 13  2  0
 11  5  1  0
 12 11  1  0
 14 12  2  0
 15 13  1  0
 16 14  1  0
 16 15  2  0
 17 16  1  0
 18 19  2  0
 20 18  1  0
 21 19  1  0
 22 20  2  0
 22 23  1  0
 23 21  2  0
M  RAD  8   3   2   9   2  12   2  13   2  14   2  15   2  17   2  19   2
M  CHG  1   5   1
M  RAD  4  20   2  21   2  22   2  23   2
M  END
>  <vina_score>  (1) 
-6.0279999999999996

>  <pose_id>  (1) 
1

$$$$

     RDKit          3D

 23 25  0  0  1  0  0  0  0  0999 V2000
   19.0590    8.4680   17.8290 C   0  0  0  0  0  0  0  0  0  0  0  0
   19.1800    6.9950   18.7430 S   0  0  0  0  0  0  0  0  0  0  0  0
   18.9470    7.8780   20.1940 C   0  0  0  0  0  3  0  0  0  0  0  0
   18.5800    9.1840   19.9370 C   0  0  0  0  0  0  0  0  0  0  0  0
   18.5760    9.4770   18.5700 N   0  0  0  0  0  0  0  0  0  0  0  0
   19.4020    8.4430   16.5470 N   0  0  0  0  0  0  0  0  0  0  0  0
   18.4750    8.1450   15.5160 C   0  0  0  0  0  0  0  0  0  0  0  0
   17.2940    7.9980   15.7740 O   0  0  0  0  0  0  0  0  0  0  0  0
   19.0560    8.1450   14.1370 C   0  0  0  0  0  1  0  0  0  0  0  0
   20.2860    8.8870   16.3540 H   0  0  0  0  0  0  0  0  0  0  0  0
   18.0190   10.7170   18.0330 C   0  0  0  0  0  0  0  0  0  0  0  0
   16.6470   10.9200   18.1600 C   0  0  0  0  0  3  0  0  0  0  0  0
   18.8420   11.6480   17.4100 C   0  0  0  0  0  3  0  0  0  0  0  0
   16.0860   12.0940   17.6540 C   0  0  0  0  0  3  0  0  0  0  0  0
   18.2740   12.8180   16.9030 C   0  0  0  0  0  3  0  0  0  0  0  0
   16.8940   13.0440   17.0120 C   0  0  0  0  0  0  0  0  0  0  0  0
   16.2970   14.3240   16.4980 C   0  0  0  0  0  1  0  0  0  0  0  0
   18.1420   10.0470   21.0220 C   0  0  0  0  0  0  0  0  0  0  0  0
   19.0590   10.8810   21.6750 C   0  0  0  0  0  3  0  0  0  0  0  0
   16.7950   10.0590   21.4100 C   0  0  0  0  0  3  0  0  0  0  0  0
   18.6340   11.7090   22.7140 C   0  0  0  0  0  3  0  0  0  0  0  0
   16.3760   10.8900   22.4500 C   0  0  0  0  0  3  0  0  0  0  0  0
   17.2950   11.7120   23.1010 C   0  0  0  0  0  3  0  0  0  0  0  0
  1  6  1  0
  1  5  2  0
  1  2  1  0
  2  3  1  0
  4  3  2  0
  4 18  1  0
  5  4  1  0
  7  8  2  0
  7  6  1  0
  9  7  1  0
 10  6  1  0
 11 12  1  0
 11  5  1  0
 13 11  2  0
 14 12  2  0
 15 16  2  0
 15 13  1  0
 16 14  1  0
 17 16  1  0
 18 20  1  0
 18 19  2  0
 19 21  1  0
 20 22  2  0
 21 23  2  0
 22 23  1  0
M  RAD  8   3   2   9   2  12   2  13   2  14   2  15   2  17   2  19   2
M  CHG  1   5   1
M  RAD  4  20   2  21   2  22   2  23   2
M  END
>  <vina_score>  (2) 
-5.9139999999999997

>  <pose_id>  (2) 
2

$$$$

     RDKit          3D

 23 25  0  0  1  0  0  0  0  0999 V2000
   18.1060   12.6200   16.8040 C   0  0  0  0  0  0  0  0  0  0  0  0
   16.5140   12.3060   17.4270 S   0  0  0  0  0  0  0  0  0  0  0  0
   15.8390   13.2860   16.1940 C   0  0  0  0  0  3  0  0  0  0  0  0
   16.7850   13.6320   15.2490 C   0  0  0  0  0  0  0  0  0  0  0  0
   18.0630   13.1730   15.5820 N   0  0  0  0  0  0  0  0  0  0  0  0
   19.1510   12.2660   17.5410 N   0  0  0  0  0  0  0  0  0  0  0  0
   19.6740   10.9490   17.5390 C   0  0  0  0  0  0  0  0  0  0  0  0
   19.2320   10.1120   16.7720 O   0  0  0  0  0  0  0  0  0  0  0  0
   20.8420   10.7400   18.4510 C   0  0  0  0  0  1  0  0  0  0  0  0
   19.6800   13.0470   17.8960 H   0  0  0  0  0  0  0  0  0  0  0  0
   19.1850   13.2230   14.6470 C   0  0  0  0  0  0  0  0  0  0  0  0
   20.0030   14.3510   14.6760 C   0  0  0  0  0  3  0  0  0  0  0  0
   19.4090   12.1790   13.7570 C   0  0  0  0  0  3  0  0  0  0  0  0
   21.0800   14.4290   13.7920 C   0  0  0  0  0  3  0  0  0  0  0  0
   20.4860   12.2660   12.8740 C   0  0  0  0  0  3  0  0  0  0  0  0
   21.3210   13.3930   12.8780 C   0  0  0  0  0  0  0  0  0  0  0  0
   22.5020   13.4600   11.9510 C   0  0  0  0  0  1  0  0  0  0  0  0
   16.3810   14.2920   14.0180 C   0  0  0  0  0  0  0  0  0  0  0  0
   16.8060   15.5990   13.7450 C   0  0  0  0  0  3  0  0  0  0  0  0
   15.5770   13.6160   13.0910 C   0  0  0  0  0  3  0  0  0  0  0  0
   16.4170   16.2270   12.5620 C   0  0  0  0  0  3  0  0  0  0  0  0
   15.1930   14.2500   11.9070 C   0  0  0  0  0  3  0  0  0  0  0  0
   15.6110   15.5530   11.6450 C   0  0  0  0  0  3  0  0  0  0  0  0
  1  2  1  0
  1  6  1  0
  3  2  1  0
  4 18  1  0
  4  5  1  0
  4  3  2  0
  5  1  2  0
  6 10  1  0
  7  6  1  0
  7  9  1  0
  8  7  2  0
 11 12  1  0
 11  5  1  0
 13 11  2  0
 14 12  2  0
 15 16  2  0
 15 13  1  0
 16 14  1  0
 17 16  1  0
 19 18  2  0
 20 18  1  0
 21 19  1  0
 22 20  2  0
 23 22  1  0
 23 21  2  0
M  RAD  8   3   2   9   2  12   2  13   2  14   2  15   2  17   2  19   2
M  CHG  1   5   1
M  RAD  4  20   2  21   2  22   2  23   2
M  END
>  <vina_score>  (3) 
-5.9039999999999999

>  <pose_id>  (3) 
3

$$$$

     RDKit          3D

 23 25  0  0  1  0  0  0  0  0999 V2000
   20.3640   11.6550   15.3140 C   0  0  0  0  0  0  0  0  0  0  0  0
   18.9200   11.8600   14.3700 S   0  0  0  0  0  0  0  0  0  0  0  0
   19.8380   12.5980   13.1260 C   0  0  0  0  0  3  0  0  0  0  0  0
   21.1940   12.4740   13.3580 C   0  0  0  0  0  0  0  0  0  0  0  0
   21.4710   11.8610   14.5830 N   0  0  0  0  0  0  0  0  0  0  0  0
   20.2380   11.2970   16.5860 N   0  0  0  0  0  0  0  0  0  0  0  0
   19.9800    9.9600   16.9790 C   0  0  0  0  0  0  0  0  0  0  0  0
   19.9620    9.0670   16.1500 O   0  0  0  0  0  0  0  0  0  0  0  0
   19.8510    9.7580   18.4560 C   0  0  0  0  0  1  0  0  0  0  0  0
   20.5830   11.9850   17.2370 H   0  0  0  0  0  0  0  0  0  0  0  0
   22.8140   11.4240   14.9590 C   0  0  0  0  0  0  0  0  0  0  0  0
   23.0840   10.0580   14.9260 C   0  0  0  0  0  3  0  0  0  0  0  0
   23.7740   12.3520   15.3450 C   0  0  0  0  0  3  0  0  0  0  0  0
   24.3580    9.6110   15.2820 C   0  0  0  0  0  3  0  0  0  0  0  0
   25.0440   11.8970   15.7040 C   0  0  0  0  0  3  0  0  0  0  0  0
   25.3410   10.5260   15.6860 C   0  0  0  0  0  0  0  0  0  0  0  0
   26.7230   10.0490   16.0360 C   0  0  0  0  0  1  0  0  0  0  0  0
   22.1490   12.8550   12.3300 C   0  0  0  0  0  0  0  0  0  0  0  0
   23.0420   11.9080   11.8100 C   0  0  0  0  0  3  0  0  0  0  0  0
   22.1710   14.1680   11.8430 C   0  0  0  0  0  3  0  0  0  0  0  0
   23.9550   12.2760   10.8230 C   0  0  0  0  0  3  0  0  0  0  0  0
   23.0860   14.5310   10.8530 C   0  0  0  0  0  3  0  0  0  0  0  0
   23.9770   13.5860   10.3460 C   0  0  0  0  0  3  0  0  0  0  0  0
  1  6  1  0
  2  1  1  0
  3  4  2  0
  3  2  1  0
  4 18  1  0
  4  5  1  0
  5 11  1  0
  5  1  2  0
  6  7  1  0
  6 10  1  0
  7  9  1  0
  8  7  2  0
 11 13  2  0
 12 11  1  0
 12 14  2  0
 13 15  1  0
 14 16  1  0
 16 15  2  0
 16 17  1  0
 19 18  2  0
 20 18  1  0
 21 19  1  0
 22 20  2  0
 23 21  2  0
 23 22  1  0
M  RAD  8   3   2   9   2  12   2  13   2  14   2  15   2  17   2  19   2
M  CHG  1   5   1
M  RAD  4  20   2  21   2  22   2  23   2
M  END
>  <vina_score>  (4) 
-5.7850000000000001

>  <pose_id>  (4) 
4

$$$$

     RDKit          3D

 23 25  0  0  1  0  0  0  0  0999 V2000
   23.3380   10.9490   15.7610 C   0  0  0  0  0  0  0  0  0  0  0  0
   24.8620   11.6830   16.1590 S   0  0  0  0  0  0  0  0  0  0  0  0
   24.8320   12.5470   14.6800 C   0  0  0  0  0  3  0  0  0  0  0  0
   23.6090   12.4280   14.0500 C   0  0  0  0  0  0  0  0  0  0  0  0
   22.7420   11.5670   14.7290 N   0  0  0  0  0  0  0  0  0  0  0  0
   22.9180    9.9310   16.5000 N   0  0  0  0  0  0  0  0  0  0  0  0
   23.1150    8.5800   16.1180 C   0  0  0  0  0  0  0  0  0  0  0  0
   23.7760    8.3090   15.1310 O   0  0  0  0  0  0  0  0  0  0  0  0
   22.5520    7.5740   17.0730 C   0  0  0  0  0  1  0  0  0  0  0  0
   22.6800   10.1870   17.4450 H   0  0  0  0  0  0  0  0  0  0  0  0
   21.3270   11.4440   14.3840 C   0  0  0  0  0  0  0  0  0  0  0  0
   20.4190   12.2450   15.0740 C   0  0  0  0  0  3  0  0  0  0  0  0
   20.9150   10.5450   13.4070 C   0  0  0  0  0  3  0  0  0  0  0  0
   19.0610   12.1460   14.7680 C   0  0  0  0  0  3  0  0  0  0  0  0
   19.5550   10.4490   13.1100 C   0  0  0  0  0  3  0  0  0  0  0  0
   18.6190   11.2390   13.7940 C   0  0  0  0  0  0  0  0  0  0  0  0
   17.1610   11.1570   13.4390 C   0  0  0  0  0  1  0  0  0  0  0  0
   23.3060   13.2410   12.8830 C   0  0  0  0  0  0  0  0  0  0  0  0
   23.8240   12.8970   11.6280 C   0  0  0  0  0  3  0  0  0  0  0  0
   22.4790   14.3660   13.0070 C   0  0  0  0  0  3  0  0  0  0  0  0
   23.5280   13.6790   10.5110 C   0  0  0  0  0  3  0  0  0  0  0  0
   22.1850   15.1440   11.8860 C   0  0  0  0  0  3  0  0  0  0  0  0
   22.7110   14.8010   10.6410 C   0  0  0  0  0  3  0  0  0  0  0  0
  1  2  1  0
  1  6  1  0
  3  2  1  0
  4 18  1  0
  4  3  2  0
  4  5  1  0
  5  1  2  0
  6 10  1  0
  7  6  1  0
  7  9  1  0
  8  7  2  0
 11  5  1  0
 11 12  1  0
 13 11  2  0
 14 12  2  0
 15 13  1  0
 15 16  2  0
 16 14  1  0
 17 16  1  0
 18 20  1  0
 19 18  2  0
 21 23  2  0
 21 19  1  0
 22 20  2  0
 23 22  1  0
M  RAD  8   3   2   9   2  12   2  13   2  14   2  15   2  17   2  19   2
M  CHG  1   5   1
M  RAD  4  20   2  21   2  22   2  23   2
M  END
>  <vina_score>  (5) 
-5.7830000000000004

>  <pose_id>  (5) 
5

$$$$
