
     RDKit          3D

 19 20  0  0  0  0  0  0  0  0999 V2000
   19.2400   14.0770   13.1400 C   0  0  0  0  0  0  0  0  0  0  0  0
   19.1340   12.9080   12.7910 O   0  0  0  0  0  0  0  0  0  0  0  0
   20.4130   14.8090   13.1230 N   0  0  0  0  0  0  0  0  0  0  0  0
   20.4660   15.5810   13.7760 H   0  0  0  0  0  0  0  0  0  0  0  0
   18.0940   14.7870   13.7280 C   0  0  0  0  0  0  0  0  0  0  0  0
   16.4180   15.2320   15.3230 C   0  0  0  0  0  0  0  0  0  0  0  0
   17.4770   14.4210   14.9760 C   0  0  0  0  0  3  0  0  0  0  0  0
   16.1400   16.4340   14.1420 S   0  0  0  0  0  0  0  0  0  0  0  0
   17.4270   15.8650   13.1700 C   0  0  0  0  0  3  0  0  0  0  0  0
   15.5530   15.1620   16.5340 C   0  0  0  0  0  1  0  0  0  0  0  0
   21.6470   14.4150   12.5470 C   0  0  0  0  0  0  0  0  0  0  0  0
   22.5980   13.6230   13.2070 C   0  0  0  0  0  0  0  0  0  0  0  0
   21.9180   14.7950   11.2180 C   0  0  0  0  0  0  0  0  0  0  0  0
   23.7990   13.2700   12.5950 C   0  0  0  0  0  3  0  0  0  0  0  0
   23.1190   14.4440   10.5980 C   0  0  0  0  0  3  0  0  0  0  0  0
   24.0510   13.6920   11.2990 C   0  0  0  0  0  0  0  0  0  0  0  0
   22.3540   13.0960   14.4130 F   0  0  0  0  0  0  0  0  0  0  0  0
   20.6740   15.8230   10.2090 Br  0  0  0  0  0  0  0  0  0  0  0  0
   25.2020   13.3490   10.7070 F   0  0  0  0  0  0  0  0  0  0  0  0
  1  5  1  0
  2  1  2  0
  3  1  1  0
  3  4  1  0
  5  7  1  0
  6 10  1  0
  7  6  2  0
  8  6  1  0
  9  5  2  0
  9  8  1  0
 11  3  1  0
 11 12  2  0
 12 17  1  0
 13 11  1  0
 14 12  1  0
 15 13  2  0
 15 16  1  0
 16 14  2  0
 18 13  1  0
 19 16  1  0
M  RAD  5   7   2   9   2  10   2  14   2  15   2
M  END
>  <vina_score>  (1) 
-6.0010000000000003

>  <pose_id>  (1) 
1

$$$$

     RDKit          3D

 19 20  0  0  0  0  0  0  0  0999 V2000
   20.6700   14.6230   14.1200 C   0  0  0  0  0  0  0  0  0  0  0  0
   20.7950   15.5600   14.8980 O   0  0  0  0  0  0  0  0  0  0  0  0
   19.4820   13.9710   13.8430 N   0  0  0  0  0  0  0  0  0  0  0  0
   19.5640   13.0140   13.5230 H   0  0  0  0  0  0  0  0  0  0  0  0
   21.8490   14.0300   13.4710 C   0  0  0  0  0  0  0  0  0  0  0  0
   23.3440   13.5800   11.7060 C   0  0  0  0  0  0  0  0  0  0  0  0
   22.1960   14.2410   12.0900 C   0  0  0  0  0  3  0  0  0  0  0  0
   24.0090   12.6830   12.9980 S   0  0  0  0  0  0  0  0  0  0  0  0
   22.7610   13.1710   14.0610 C   0  0  0  0  0  3  0  0  0  0  0  0
   24.0060   13.5700   10.3710 C   0  0  0  0  0  1  0  0  0  0  0  0
   18.1850   14.3650   14.2590 C   0  0  0  0  0  0  0  0  0  0  0  0
   17.6530   14.0800   15.5250 C   0  0  0  0  0  0  0  0  0  0  0  0
   17.4000   15.1280   13.3730 C   0  0  0  0  0  0  0  0  0  0  0  0
   16.3680   14.4860   15.8810 C   0  0  0  0  0  3  0  0  0  0  0  0
   16.1120   15.5390   13.7230 C   0  0  0  0  0  3  0  0  0  0  0  0
   15.6070   15.2040   14.9710 C   0  0  0  0  0  0  0  0  0  0  0  0
   18.3880   13.4920   16.4770 F   0  0  0  0  0  0  0  0  0  0  0  0
   18.0440   15.6190   11.6510 Br  0  0  0  0  0  0  0  0  0  0  0  0
   14.3740   15.6010   15.3110 F   0  0  0  0  0  0  0  0  0  0  0  0
  1  2  2  0
  3  1  1  0
  3 11  1  0
  4  3  1  0
  5  9  2  0
  5  1  1  0
  6  7  2  0
  6  8  1  0
  7  5  1  0
  8  9  1  0
 10  6  1  0
 11 12  2  0
 12 14  1  0
 12 17  1  0
 13 15  2  0
 13 11  1  0
 15 16  1  0
 16 19  1  0
 16 14  2  0
 18 13  1  0
M  RAD  5   7   2   9   2  10   2  14   2  15   2
M  END
>  <vina_score>  (2) 
-5.9000000000000004

>  <pose_id>  (2) 
2

$$$$

     RDKit          3D

 19 20  0  0  0  0  0  0  0  0999 V2000
   20.3170   12.4280   13.2200 C   0  0  0  0  0  0  0  0  0  0  0  0
   19.6540   11.5800   12.6350 O   0  0  0  0  0  0  0  0  0  0  0  0
   20.1780   13.7940   13.0630 N   0  0  0  0  0  0  0  0  0  0  0  0
   20.9980   14.3520   13.2680 H   0  0  0  0  0  0  0  0  0  0  0  0
   21.4300   12.0310   14.0950 C   0  0  0  0  0  0  0  0  0  0  0  0
   23.6140   12.1050   14.9770 C   0  0  0  0  0  0  0  0  0  0  0  0
   22.7320   12.6450   14.0650 C   0  0  0  0  0  3  0  0  0  0  0  0
   22.8920   10.8390   15.8680 S   0  0  0  0  0  0  0  0  0  0  0  0
   21.4110   11.0100   15.0300 C   0  0  0  0  0  3  0  0  0  0  0  0
   25.0310   12.4860   15.2350 C   0  0  0  0  0  1  0  0  0  0  0  0
   19.1510   14.4630   12.3500 C   0  0  0  0  0  0  0  0  0  0  0  0
   17.7930   14.4020   12.6970 C   0  0  0  0  0  0  0  0  0  0  0  0
   19.5140   15.2780   11.2600 C   0  0  0  0  0  0  0  0  0  0  0  0
   16.8240   15.0750   11.9570 C   0  0  0  0  0  3  0  0  0  0  0  0
   18.5470   15.9560   10.5140 C   0  0  0  0  0  3  0  0  0  0  0  0
   17.2100   15.8390   10.8670 C   0  0  0  0  0  0  0  0  0  0  0  0
   17.3820   13.7740   13.8050 F   0  0  0  0  0  0  0  0  0  0  0  0
   21.3320   15.4790   10.7350 Br  0  0  0  0  0  0  0  0  0  0  0  0
   16.2820   16.4910   10.1570 F   0  0  0  0  0  0  0  0  0  0  0  0
  1  5  1  0
  2  1  2  0
  3  1  1  0
  3  4  1  0
  5  9  2  0
  6 10  1  0
  6  8  1  0
  7  5  1  0
  7  6  2  0
  9  8  1  0
 11 12  2  0
 11  3  1  0
 12 17  1  0
 13 11  1  0
 14 12  1  0
 15 16  1  0
 15 13  2  0
 16 14  2  0
 18 13  1  0
 19 16  1  0
M  RAD  5   7   2   9   2  10   2  14   2  15   2
M  END
>  <vina_score>  (3) 
-5.8970000000000002

>  <pose_id>  (3) 
3

$$$$

     RDKit          3D

 19 20  0  0  0  0  0  0  0  0999 V2000
   20.5740    9.6500   18.8490 C   0  0  0  0  0  0  0  0  0  0  0  0
   20.4540   10.8050   18.4600 O   0  0  0  0  0  0  0  0  0  0  0  0
   19.9920    9.1300   19.9900 N   0  0  0  0  0  0  0  0  0  0  0  0
   20.4620    8.3360   20.4070 H   0  0  0  0  0  0  0  0  0  0  0  0
   21.4730    8.7180   18.1520 C   0  0  0  0  0  0  0  0  0  0  0  0
   23.5330    7.7250   17.5830 C   0  0  0  0  0  0  0  0  0  0  0  0
   22.8990    8.6810   18.3480 C   0  0  0  0  0  3  0  0  0  0  0  0
   22.4230    6.8720   16.6050 S   0  0  0  0  0  0  0  0  0  0  0  0
   21.1030    7.7850   17.1980 C   0  0  0  0  0  3  0  0  0  0  0  0
   24.9850    7.3940   17.5270 C   0  0  0  0  0  1  0  0  0  0  0  0
   19.0270    9.7640   20.8110 C   0  0  0  0  0  0  0  0  0  0  0  0
   19.3370   10.7470   21.7640 C   0  0  0  0  0  0  0  0  0  0  0  0
   17.6700    9.4310   20.6310 C   0  0  0  0  0  0  0  0  0  0  0  0
   18.3480   11.3340   22.5490 C   0  0  0  0  0  3  0  0  0  0  0  0
   16.6740   10.0160   21.4150 C   0  0  0  0  0  3  0  0  0  0  0  0
   17.0270   10.9560   22.3730 C   0  0  0  0  0  0  0  0  0  0  0  0
   20.5800   11.2280   21.8910 F   0  0  0  0  0  0  0  0  0  0  0  0
   17.1300    8.1510   19.3300 Br  0  0  0  0  0  0  0  0  0  0  0  0
   16.0730   11.5230   23.1230 F   0  0  0  0  0  0  0  0  0  0  0  0
  1  3  1  0
  2  1  2  0
  3  4  1  0
  3 11  1  0
  5  7  1  0
  5  1  1  0
  6  7  2  0
  8  9  1  0
  8  6  1  0
  9  5  2  0
 10  6  1  0
 11 12  2  0
 12 17  1  0
 12 14  1  0
 13 11  1  0
 13 15  2  0
 15 16  1  0
 16 14  2  0
 16 19  1  0
 18 13  1  0
M  RAD  5   7   2   9   2  10   2  14   2  15   2
M  END
>  <vina_score>  (4) 
-5.8840000000000003

>  <pose_id>  (4) 
4

$$$$

     RDKit          3D

 19 20  0  0  0  0  0  0  0  0999 V2000
   20.6890   14.7710   14.1740 C   0  0  0  0  0  0  0  0  0  0  0  0
   20.8720   15.6540   15.0030 O   0  0  0  0  0  0  0  0  0  0  0  0
   19.4590   14.2300   13.8460 N   0  0  0  0  0  0  0  0  0  0  0  0
   19.4710   13.2880   13.4770 H   0  0  0  0  0  0  0  0  0  0  0  0
   21.8290   14.1210   13.5110 C   0  0  0  0  0  0  0  0  0  0  0  0
   23.2720   13.5920   11.7240 C   0  0  0  0  0  0  0  0  0  0  0  0
   22.1610   14.3060   12.1220 C   0  0  0  0  0  3  0  0  0  0  0  0
   23.9200   12.6780   13.0130 S   0  0  0  0  0  0  0  0  0  0  0  0
   22.7130   13.2290   14.0930 C   0  0  0  0  0  3  0  0  0  0  0  0
   23.9100   13.5420   10.3790 C   0  0  0  0  0  1  0  0  0  0  0  0
   18.1890   14.7020   14.2650 C   0  0  0  0  0  0  0  0  0  0  0  0
   17.4850   15.7260   13.6140 C   0  0  0  0  0  0  0  0  0  0  0  0
   17.5720   14.0790   15.3660 C   0  0  0  0  0  0  0  0  0  0  0  0
   16.2410   16.1560   14.0720 C   0  0  0  0  0  3  0  0  0  0  0  0
   16.3250   14.5040   15.8300 C   0  0  0  0  0  3  0  0  0  0  0  0
   15.6780   15.5460   15.1820 C   0  0  0  0  0  0  0  0  0  0  0  0
   17.9310   16.2670   12.4740 F   0  0  0  0  0  0  0  0  0  0  0  0
   18.4130   12.6430   16.2910 Br  0  0  0  0  0  0  0  0  0  0  0  0
   14.4810   15.9530   15.6210 F   0  0  0  0  0  0  0  0  0  0  0  0
  1  2  2  0
  3  1  1  0
  3 11  1  0
  4  3  1  0
  5  9  2  0
  5  1  1  0
  6  7  2  0
  6  8  1  0
  7  5  1  0
  8  9  1  0
 10  6  1  0
 11 13  1  0
 12 14  1  0
 12 11  2  0
 13 15  2  0
 13 18  1  0
 14 16  2  0
 16 19  1  0
 16 15  1  0
 17 12  1  0
M  RAD  5   7   2   9   2  10   2  14   2  15   2
M  END
>  <vina_score>  (5) 
-5.8680000000000003

>  <pose_id>  (5) 
5

$$$$
