
     RDKit          3D

 24 26  0  0  1  0  0  0  0  0999 V2000
   23.6840   11.7180   12.3360 C   0  0  0  0  0  2  0  0  0  0  0  0
   24.3050   11.2070   11.0360 C   0  0  0  0  0  0  0  0  0  0  0  0
   24.1760   10.1150   10.5020 O   0  0  0  0  0  0  0  0  0  0  0  0
   25.0770   12.1480   10.4470 O   0  0  0  0  0  0  0  0  0  0  0  0
   25.4400   11.6870    9.6600 H   0  0  0  0  0  0  0  0  0  0  0  0
   22.4320   12.4770   12.1760 N   0  0  0  0  0  0  0  0  0  0  0  0
   21.2480   11.8000   12.7260 C   0  0  0  0  0  2  0  0  0  0  0  0
   22.5130   13.8730   12.6000 C   0  0  0  0  0  2  0  0  0  0  0  0
   20.1250   12.7490   13.2200 C   0  0  0  0  0  2  0  0  0  0  0  0
   21.2250   14.6710   12.2570 C   0  0  0  0  0  2  0  0  0  0  0  0
   19.9460   13.9150   12.3330 N   0  0  0  0  0  0  0  0  0  0  0  0
   18.8140   14.7860   12.7570 C   0  0  0  0  0  3  0  0  0  0  0  0
   18.0080   15.3640   11.5820 C   0  0  0  0  0  0  0  0  0  0  0  0
   16.6240   15.5920   11.6740 C   0  0  0  0  0  3  0  0  0  0  0  0
   18.6640   15.7040   10.3860 C   0  0  0  0  0  3  0  0  0  0  0  0
   15.9170   16.1330   10.5970 C   0  0  0  0  0  3  0  0  0  0  0  0
   17.9550   16.2480    9.3130 C   0  0  0  0  0  3  0  0  0  0  0  0
   16.5820   16.4600    9.4190 C   0  0  0  0  0  3  0  0  0  0  0  0
   17.8580   14.1080   13.7490 C   0  0  0  0  0  0  0  0  0  0  0  0
   17.7650   14.5820   15.0700 C   0  0  0  0  0  3  0  0  0  0  0  0
   17.0500   13.0220   13.3700 C   0  0  0  0  0  3  0  0  0  0  0  0
   16.8980   13.9800   15.9840 C   0  0  0  0  0  3  0  0  0  0  0  0
   16.1820   12.4230   14.2850 C   0  0  0  0  0  3  0  0  0  0  0  0
   16.1070   12.9010   15.5910 C   0  0  0  0  0  3  0  0  0  0  0  0
  2  1  1  0
  3  2  2  0
  4  2  1  0
  5  4  1  0
  6  1  1  0
  6  8  1  0
  6  7  1  0
  7  9  1  0
 10 11  1  0
 10  8  1  0
 11 12  1  0
 11  9  1  0
 12 13  1  0
 12 19  1  0
 13 14  2  0
 15 13  1  0
 16 14  1  0
 17 18  1  0
 17 15  2  0
 18 16  2  0
 19 20  2  0
 20 22  1  0
 21 19  1  0
 21 23  2  0
 23 24  1  0
 24 22  2  0
M  RAD  8   1   3   7   3   8   3   9   3  10   3  12   2  14   2  15   2
M  RAD  8  16   2  17   2  18   2  20   2  21   2  22   2  23   2  24   2
M  END
>  <vina_score>  (1) 
-7.0369999999999999

>  <pose_id>  (1) 
1

$$$$

     RDKit          3D

 24 26  0  0  1  0  0  0  0  0999 V2000
   20.8950    8.7150   13.7800 C   0  0  0  0  0  2  0  0  0  0  0  0
   22.3490    8.3970   13.4340 C   0  0  0  0  0  0  0  0  0  0  0  0
   22.8580    8.2370   12.3340 O   0  0  0  0  0  0  0  0  0  0  0  0
   23.1190    8.3080   14.5420 O   0  0  0  0  0  0  0  0  0  0  0  0
   22.4660    8.2550   15.2720 H   0  0  0  0  0  0  0  0  0  0  0  0
   20.4200   10.0360   13.3350 N   0  0  0  0  0  0  0  0  0  0  0  0
   19.0750   10.3820   13.8210 C   0  0  0  0  0  2  0  0  0  0  0  0
   21.3740   11.1240   13.5400 C   0  0  0  0  0  2  0  0  0  0  0  0
   18.8180   11.9010   14.0030 C   0  0  0  0  0  2  0  0  0  0  0  0
   20.8950   12.4580   12.9050 C   0  0  0  0  0  2  0  0  0  0  0  0
   19.4290   12.7050   12.9270 N   0  0  0  0  0  0  0  0  0  0  0  0
   19.1160   14.1570   13.0510 C   0  0  0  0  0  3  0  0  0  0  0  0
   19.2850   14.9380   11.7380 C   0  0  0  0  0  0  0  0  0  0  0  0
   20.5530   15.1980   11.1880 C   0  0  0  0  0  3  0  0  0  0  0  0
   18.1500   15.3900   11.0430 C   0  0  0  0  0  3  0  0  0  0  0  0
   20.6790   15.8970    9.9850 C   0  0  0  0  0  3  0  0  0  0  0  0
   18.2790   16.0860    9.8400 C   0  0  0  0  0  3  0  0  0  0  0  0
   19.5440   16.3400    9.3130 C   0  0  0  0  0  3  0  0  0  0  0  0
   17.7230   14.4340   13.6350 C   0  0  0  0  0  0  0  0  0  0  0  0
   17.5740   15.3590   14.6860 C   0  0  0  0  0  3  0  0  0  0  0  0
   16.5730   13.7960   13.1380 C   0  0  0  0  0  3  0  0  0  0  0  0
   16.3150   15.6260   15.2260 C   0  0  0  0  0  3  0  0  0  0  0  0
   15.3150   14.0670   13.6800 C   0  0  0  0  0  3  0  0  0  0  0  0
   15.1860   14.9810   14.7230 C   0  0  0  0  0  3  0  0  0  0  0  0
  2  1  1  0
  2  4  1  0
  3  2  2  0
  4  5  1  0
  6  8  1  0
  6  1  1  0
  6  7  1  0
  7  9  1  0
 10 11  1  0
 10  8  1  0
 11 12  1  0
 11  9  1  0
 12 13  1  0
 12 19  1  0
 14 13  2  0
 15 13  1  0
 16 14  1  0
 17 15  2  0
 18 17  1  0
 18 16  2  0
 19 20  2  0
 20 22  1  0
 21 19  1  0
 21 23  2  0
 23 24  1  0
 24 22  2  0
M  RAD  8   1   3   7   3   8   3   9   3  10   3  12   2  14   2  15   2
M  RAD  8  16   2  17   2  18   2  20   2  21   2  22   2  23   2  24   2
M  END
>  <vina_score>  (2) 
-6.6050000000000004

>  <pose_id>  (2) 
2

$$$$

     RDKit          3D

 24 26  0  0  1  0  0  0  0  0999 V2000
   15.7400   14.0630   14.6840 C   0  0  0  0  0  2  0  0  0  0  0  0
   15.7160   15.5810   14.8630 C   0  0  0  0  0  0  0  0  0  0  0  0
   16.6270   16.3840   14.7250 O   0  0  0  0  0  0  0  0  0  0  0  0
   14.4860   16.0250   15.2070 O   0  0  0  0  0  0  0  0  0  0  0  0
   14.4680   15.9190   16.1830 H   0  0  0  0  0  0  0  0  0  0  0  0
   16.4880   13.3220   15.7140 N   0  0  0  0  0  0  0  0  0  0  0  0
   15.8380   13.3140   17.0340 C   0  0  0  0  0  2  0  0  0  0  0  0
   16.9200   11.9880   15.3050 C   0  0  0  0  0  2  0  0  0  0  0  0
   16.1440   12.0660   17.9020 C   0  0  0  0  0  2  0  0  0  0  0  0
   17.8440   11.3180   16.3590 C   0  0  0  0  0  2  0  0  0  0  0  0
   17.5490   11.6300   17.7830 N   0  0  0  0  0  0  0  0  0  0  0  0
   17.8690   10.4830   18.6780 C   0  0  0  0  0  3  0  0  0  0  0  0
   19.3080    9.9630   18.5240 C   0  0  0  0  0  0  0  0  0  0  0  0
   19.5830    8.6120   18.2500 C   0  0  0  0  0  3  0  0  0  0  0  0
   20.3880   10.8570   18.6320 C   0  0  0  0  0  3  0  0  0  0  0  0
   20.8990    8.1680   18.0980 C   0  0  0  0  0  3  0  0  0  0  0  0
   21.7020   10.4110   18.4770 C   0  0  0  0  0  3  0  0  0  0  0  0
   21.9560    9.0670   18.2130 C   0  0  0  0  0  3  0  0  0  0  0  0
   17.5830   10.7640   20.1600 C   0  0  0  0  0  0  0  0  0  0  0  0
   16.5060   10.1240   20.8010 C   0  0  0  0  0  3  0  0  0  0  0  0
   18.3820   11.6430   20.9120 C   0  0  0  0  0  3  0  0  0  0  0  0
   16.2350   10.3660   22.1490 C   0  0  0  0  0  3  0  0  0  0  0  0
   18.1090   11.8820   22.2600 C   0  0  0  0  0  3  0  0  0  0  0  0
   17.0360   11.2430   22.8780 C   0  0  0  0  0  3  0  0  0  0  0  0
  1  2  1  0
  1  6  1  0
  2  4  1  0
  3  2  2  0
  4  5  1  0
  6  7  1  0
  7  9  1  0
  8  6  1  0
  8 10  1  0
 10 11  1  0
 11  9  1  0
 11 12  1  0
 12 13  1  0
 12 19  1  0
 13 15  1  0
 14 13  2  0
 16 18  2  0
 16 14  1  0
 17 15  2  0
 18 17  1  0
 19 20  2  0
 19 21  1  0
 20 22  1  0
 21 23  2  0
 22 24  2  0
 23 24  1  0
M  RAD  8   1   3   7   3   8   3   9   3  10   3  12   2  14   2  15   2
M  RAD  8  16   2  17   2  18   2  20   2  21   2  22   2  23   2  24   2
M  END
>  <vina_score>  (3) 
-6.54

>  <pose_id>  (3) 
3

$$$$

     RDKit          3D

 24 26  0  0  1  0  0  0  0  0999 V2000
   19.4340   10.8900   19.0300 C   0  0  0  0  0  2  0  0  0  0  0  0
   19.7410   11.8230   20.2020 C   0  0  0  0  0  0  0  0  0  0  0  0
   19.8000   11.5620   21.3940 O   0  0  0  0  0  0  0  0  0  0  0  0
   19.9810   13.0870   19.7860 O   0  0  0  0  0  0  0  0  0  0  0  0
   20.4000   13.5100   20.5660 H   0  0  0  0  0  0  0  0  0  0  0  0
   20.4330   10.8950   17.9480 N   0  0  0  0  0  0  0  0  0  0  0  0
   21.7350   10.3300   18.3340 C   0  0  0  0  0  2  0  0  0  0  0  0
   19.9530   10.3530   16.6790 C   0  0  0  0  0  2  0  0  0  0  0  0
   22.5320    9.6770   17.1740 C   0  0  0  0  0  2  0  0  0  0  0  0
   20.9840   10.5340   15.5310 C   0  0  0  0  0  2  0  0  0  0  0  0
   22.4170   10.4400   15.9170 N   0  0  0  0  0  0  0  0  0  0  0  0
   23.2470    9.8630   14.8210 C   0  0  0  0  0  3  0  0  0  0  0  0
   23.6950   10.8980   13.7770 C   0  0  0  0  0  0  0  0  0  0  0  0
   24.0660   10.5230   12.4730 C   0  0  0  0  0  3  0  0  0  0  0  0
   23.7160   12.2630   14.1110 C   0  0  0  0  0  3  0  0  0  0  0  0
   24.4550   11.4850   11.5380 C   0  0  0  0  0  3  0  0  0  0  0  0
   24.1020   13.2220   13.1730 C   0  0  0  0  0  3  0  0  0  0  0  0
   24.4730   12.8320   11.8880 C   0  0  0  0  0  3  0  0  0  0  0  0
   24.4690    9.0820   15.3260 C   0  0  0  0  0  0  0  0  0  0  0  0
   25.5990    9.7760   15.7980 C   0  0  0  0  0  3  0  0  0  0  0  0
   24.4910    7.6770   15.3460 C   0  0  0  0  0  3  0  0  0  0  0  0
   26.7170    9.0820   16.2640 C   0  0  0  0  0  3  0  0  0  0  0  0
   25.6100    6.9850   15.8140 C   0  0  0  0  0  3  0  0  0  0  0  0
   26.7230    7.6880   16.2720 C   0  0  0  0  0  3  0  0  0  0  0  0
  1  2  1  0
  2  3  2  0
  4  2  1  0
  4  5  1  0
  6  7  1  0
  6  1  1  0
  8  6  1  0
  9  7  1  0
 10 11  1  0
 10  8  1  0
 11  9  1  0
 12 13  1  0
 12 19  1  0
 12 11  1  0
 13 15  1  0
 14 13  2  0
 16 18  2  0
 16 14  1  0
 17 15  2  0
 18 17  1  0
 19 21  1  0
 19 20  2  0
 20 22  1  0
 21 23  2  0
 22 24  2  0
 23 24  1  0
M  RAD  8   1   3   7   3   8   3   9   3  10   3  12   2  14   2  15   2
M  RAD  8  16   2  17   2  18   2  20   2  21   2  22   2  23   2  24   2
M  END
>  <vina_score>  (4) 
-6.4939999999999998

>  <pose_id>  (4) 
4

$$$$

     RDKit          3D

 24 26  0  0  1  0  0  0  0  0999 V2000
   21.8070   10.1290   15.9380 C   0  0  0  0  0  2  0  0  0  0  0  0
   22.9500   10.5010   16.8820 C   0  0  0  0  0  0  0  0  0  0  0  0
   24.0810   10.8730   16.6070 O   0  0  0  0  0  0  0  0  0  0  0  0
   22.5830   10.3950   18.1790 O   0  0  0  0  0  0  0  0  0  0  0  0
   23.0020    9.5560   18.4680 H   0  0  0  0  0  0  0  0  0  0  0  0
   21.1090   11.2680   15.3180 N   0  0  0  0  0  0  0  0  0  0  0  0
   21.2800   11.3500   13.8590 C   0  0  0  0  0  2  0  0  0  0  0  0
   19.7110   11.4110   15.7170 C   0  0  0  0  0  2  0  0  0  0  0  0
   20.1000   12.0130   13.1020 C   0  0  0  0  0  2  0  0  0  0  0  0
   19.0710   12.7170   15.1700 C   0  0  0  0  0  2  0  0  0  0  0  0
   19.5420   13.1670   13.8330 N   0  0  0  0  0  0  0  0  0  0  0  0
   18.4630   13.8570   13.0720 C   0  0  0  0  0  3  0  0  0  0  0  0
   17.5000   14.6630   13.9590 C   0  0  0  0  0  0  0  0  0  0  0  0
   17.9270   15.7900   14.6830 C   0  0  0  0  0  3  0  0  0  0  0  0
   16.1470   14.2900   14.0400 C   0  0  0  0  0  3  0  0  0  0  0  0
   17.0290   16.5150   15.4700 C   0  0  0  0  0  3  0  0  0  0  0  0
   15.2520   15.0170   14.8250 C   0  0  0  0  0  3  0  0  0  0  0  0
   15.6940   16.1280   15.5410 C   0  0  0  0  0  3  0  0  0  0  0  0
   18.9890   14.7550   11.9420 C   0  0  0  0  0  0  0  0  0  0  0  0
   20.3740   14.9480   11.7860 C   0  0  0  0  0  3  0  0  0  0  0  0
   18.1190   15.3870   11.0360 C   0  0  0  0  0  3  0  0  0  0  0  0
   20.8690   15.7570   10.7620 C   0  0  0  0  0  3  0  0  0  0  0  0
   18.6170   16.1950   10.0120 C   0  0  0  0  0  3  0  0  0  0  0  0
   19.9920   16.3800    9.8750 C   0  0  0  0  0  3  0  0  0  0  0  0
  1  2  1  0
  2  4  1  0
  3  2  2  0
  4  5  1  0
  6  8  1  0
  6  1  1  0
  7  6  1  0
  9 11  1  0
  9  7  1  0
 10  8  1  0
 11 10  1  0
 12 19  1  0
 12 11  1  0
 12 13  1  0
 13 15  1  0
 13 14  2  0
 14 16  1  0
 15 17  2  0
 16 18  2  0
 17 18  1  0
 20 19  2  0
 21 19  1  0
 22 20  1  0
 23 21  2  0
 24 23  1  0
 24 22  2  0
M  RAD  8   1   3   7   3   8   3   9   3  10   3  12   2  14   2  15   2
M  RAD  8  16   2  17   2  18   2  20   2  21   2  22   2  23   2  24   2
M  END
>  <vina_score>  (5) 
-6.4729999999999999

>  <pose_id>  (5) 
5

$$$$
