
     RDKit          3D

 19 19  0  0  0  0  0  0  0  0999 V2000
   22.5830   11.9800   13.4180 C   0  0  0  0  0  2  0  0  0  0  0  0
   23.5100   11.7060   12.2970 N   0  0  0  0  0  0  0  0  0  0  0  0
   24.4080   12.8550   12.0770 C   0  0  0  0  0  2  0  0  0  0  0  0
   24.6880   13.0870   10.5950 C   0  0  0  0  0  1  0  0  0  0  0  0
   24.2840   10.4740   12.5500 C   0  0  0  0  0  2  0  0  0  0  0  0
   23.8450    9.7810   13.8370 C   0  0  0  0  0  1  0  0  0  0  0  0
   22.3470   13.4890   13.6260 C   0  0  0  0  0  2  0  0  0  0  0  0
   21.0420   13.9210   13.1490 N   0  0  0  0  0  0  0  0  0  0  0  0
   20.9150   14.7360   12.0450 C   0  0  0  0  0  0  0  0  0  0  0  0
   21.8670   15.1600   11.3990 O   0  0  0  0  0  0  0  0  0  0  0  0
   20.2330   13.4430   13.5190 H   0  0  0  0  0  0  0  0  0  0  0  0
   19.5280   15.0670   11.6180 C   0  0  0  0  0  0  0  0  0  0  0  0
   19.3500   15.7530   10.4100 C   0  0  0  0  0  3  0  0  0  0  0  0
   18.4130   14.7430   12.4000 C   0  0  0  0  0  3  0  0  0  0  0  0
   18.0670   16.0890    9.9710 C   0  0  0  0  0  3  0  0  0  0  0  0
   17.1280   15.0800   11.9600 C   0  0  0  0  0  0  0  0  0  0  0  0
   16.9530   15.7500   10.7430 C   0  0  0  0  0  0  0  0  0  0  0  0
   15.7970   14.6420   12.9730 Cl  0  0  0  0  0  0  0  0  0  0  0  0
   15.3940   16.1900   10.1430 Cl  0  0  0  0  0  0  0  0  0  0  0  0
  1  7  1  0
  2  5  1  0
  2  1  1  0
  3  2  1  0
  4  3  1  0
  5  6  1  0
  8 11  1  0
  8  7  1  0
  9  8  1  0
 10  9  2  0
 12  9  1  0
 12 14  2  0
 13 12  1  0
 15 13  2  0
 15 17  1  0
 16 14  1  0
 16 18  1  0
 17 16  2  0
 19 17  1  0
M  RAD  8   1   3   3   3   4   2   5   3   6   2   7   3  13   2  14   2
M  RAD  1  15   2
M  END
>  <vina_score>  (1) 
-5.3040000000000003

>  <pose_id>  (1) 
1

$$$$

     RDKit          3D

 19 19  0  0  0  0  0  0  0  0999 V2000
   17.4400   14.8300   15.3950 C   0  0  0  0  0  2  0  0  0  0  0  0
   15.9600   14.7900   15.3510 N   0  0  0  0  0  0  0  0  0  0  0  0
   15.3930   16.0300   15.9150 C   0  0  0  0  0  2  0  0  0  0  0  0
   14.9550   15.8510   17.3650 C   0  0  0  0  0  1  0  0  0  0  0  0
   15.4850   14.5750   13.9710 C   0  0  0  0  0  2  0  0  0  0  0  0
   15.5020   13.0980   13.5860 C   0  0  0  0  0  1  0  0  0  0  0  0
   18.0260   15.8690   14.4180 C   0  0  0  0  0  2  0  0  0  0  0  0
   19.2960   15.4440   13.8470 N   0  0  0  0  0  0  0  0  0  0  0  0
   19.3480   14.6960   12.6920 C   0  0  0  0  0  0  0  0  0  0  0  0
   18.3560   14.3280   12.0730 O   0  0  0  0  0  0  0  0  0  0  0  0
   20.1320   15.8850   14.2020 H   0  0  0  0  0  0  0  0  0  0  0  0
   20.7040   14.3680   12.1730 C   0  0  0  0  0  0  0  0  0  0  0  0
   21.4320   13.3540   12.8090 C   0  0  0  0  0  3  0  0  0  0  0  0
   21.2760   15.0600   11.0980 C   0  0  0  0  0  3  0  0  0  0  0  0
   22.7110   13.0150   12.3590 C   0  0  0  0  0  3  0  0  0  0  0  0
   22.5570   14.7190   10.6490 C   0  0  0  0  0  0  0  0  0  0  0  0
   23.2740   13.6940   11.2770 C   0  0  0  0  0  0  0  0  0  0  0  0
   23.1970   15.6110    9.3130 Cl  0  0  0  0  0  0  0  0  0  0  0  0
   24.8570   13.2230   10.7670 Cl  0  0  0  0  0  0  0  0  0  0  0  0
  2  1  1  0
  2  3  1  0
  3  4  1  0
  5  2  1  0
  6  5  1  0
  7  1  1  0
  8 11  1  0
  8  7  1  0
  9  8  1  0
 10  9  2  0
 12  9  1  0
 12 13  1  0
 14 12  2  0
 15 13  2  0
 16 14  1  0
 16 17  2  0
 17 15  1  0
 18 16  1  0
 19 17  1  0
M  RAD  8   1   3   3   3   4   2   5   3   6   2   7   3  13   2  14   2
M  RAD  1  15   2
M  END
>  <vina_score>  (2) 
-5.226

>  <pose_id>  (2) 
2

$$$$

     RDKit          3D

 19 19  0  0  0  0  0  0  0  0999 V2000
   17.5870   14.0740   13.8490 C   0  0  0  0  0  2  0  0  0  0  0  0
   17.5770   14.2770   12.3830 N   0  0  0  0  0  0  0  0  0  0  0  0
   16.3760   15.0290   11.9740 C   0  0  0  0  0  2  0  0  0  0  0  0
   15.0960   14.2290   12.1990 C   0  0  0  0  0  1  0  0  0  0  0  0
   18.8050   14.9690   11.9440 C   0  0  0  0  0  2  0  0  0  0  0  0
   18.6090   15.6850   10.6100 C   0  0  0  0  0  1  0  0  0  0  0  0
   17.7080   12.5860   14.2330 C   0  0  0  0  0  2  0  0  0  0  0  0
   18.0360   12.3950   15.6380 N   0  0  0  0  0  0  0  0  0  0  0  0
   17.0610   12.1240   16.5730 C   0  0  0  0  0  0  0  0  0  0  0  0
   15.8690   12.0340   16.3050 O   0  0  0  0  0  0  0  0  0  0  0  0
   19.0100   12.2620   15.8710 H   0  0  0  0  0  0  0  0  0  0  0  0
   17.5230   11.8950   17.9690 C   0  0  0  0  0  0  0  0  0  0  0  0
   18.8670   12.1460   18.2740 C   0  0  0  0  0  3  0  0  0  0  0  0
   16.6660   11.4120   18.9640 C   0  0  0  0  0  3  0  0  0  0  0  0
   19.3460   11.9400   19.5710 C   0  0  0  0  0  3  0  0  0  0  0  0
   17.1470   11.2060   20.2620 C   0  0  0  0  0  0  0  0  0  0  0  0
   18.4870   11.4740   20.5680 C   0  0  0  0  0  0  0  0  0  0  0  0
   16.0310   10.6140   21.4430 Cl  0  0  0  0  0  0  0  0  0  0  0  0
   19.1400   11.2460   22.1510 Cl  0  0  0  0  0  0  0  0  0  0  0  0
  1  7  1  0
  2  1  1  0
  3  4  1  0
  3  2  1  0
  5  2  1  0
  6  5  1  0
  7  8  1  0
  8 11  1  0
  8  9  1  0
  9 12  1  0
 10  9  2  0
 12 13  1  0
 12 14  2  0
 13 15  2  0
 14 16  1  0
 15 17  1  0
 16 17  2  0
 16 18  1  0
 17 19  1  0
M  RAD  8   1   3   3   3   4   2   5   3   6   2   7   3  13   2  14   2
M  RAD  1  15   2
M  END
>  <vina_score>  (3) 
-5.1520000000000001

>  <pose_id>  (3) 
3

$$$$

     RDKit          3D

 19 19  0  0  0  0  0  0  0  0999 V2000
   22.8490   10.5130   17.3980 C   0  0  0  0  0  2  0  0  0  0  0  0
   23.9860   10.0830   16.5530 N   0  0  0  0  0  0  0  0  0  0  0  0
   23.5110    9.6650   15.2210 C   0  0  0  0  0  2  0  0  0  0  0  0
   22.7050    8.3710   15.2800 C   0  0  0  0  0  1  0  0  0  0  0  0
   24.9890   11.1600   16.4400 C   0  0  0  0  0  2  0  0  0  0  0  0
   24.5670   12.2260   15.4310 C   0  0  0  0  0  1  0  0  0  0  0  0
   22.8010    9.7620   18.7430 C   0  0  0  0  0  2  0  0  0  0  0  0
   21.4720    9.7650   19.3370 N   0  0  0  0  0  0  0  0  0  0  0  0
   21.0850   10.7450   20.2230 C   0  0  0  0  0  0  0  0  0  0  0  0
   21.8110   11.6650   20.5810 O   0  0  0  0  0  0  0  0  0  0  0  0
   20.7810    9.1530   18.9270 H   0  0  0  0  0  0  0  0  0  0  0  0
   19.6850   10.6750   20.7240 C   0  0  0  0  0  0  0  0  0  0  0  0
   18.7430    9.9650   19.9670 C   0  0  0  0  0  3  0  0  0  0  0  0
   19.2830   11.3180   21.9010 C   0  0  0  0  0  3  0  0  0  0  0  0
   17.4160    9.8750   20.3950 C   0  0  0  0  0  3  0  0  0  0  0  0
   17.9540   11.2270   22.3290 C   0  0  0  0  0  0  0  0  0  0  0  0
   17.0200   10.5030   21.5780 C   0  0  0  0  0  0  0  0  0  0  0  0
   17.5310   12.0400   23.7950 Cl  0  0  0  0  0  0  0  0  0  0  0  0
   15.3660   10.3500   22.0550 Cl  0  0  0  0  0  0  0  0  0  0  0  0
  1  7  1  0
  2  1  1  0
  3  4  1  0
  3  2  1  0
  5  2  1  0
  6  5  1  0
  7  8  1  0
  8  9  1  0
  9 10  2  0
  9 12  1  0
 11  8  1  0
 12 14  2  0
 13 15  2  0
 13 12  1  0
 14 16  1  0
 15 17  1  0
 16 18  1  0
 17 19  1  0
 17 16  2  0
M  RAD  8   1   3   3   3   4   2   5   3   6   2   7   3  13   2  14   2
M  RAD  1  15   2
M  END
>  <vina_score>  (4) 
-5.0819999999999999

>  <pose_id>  (4) 
4

$$$$

     RDKit          3D

 19 19  0  0  0  0  0  0  0  0999 V2000
   17.5580   14.8940   14.6810 C   0  0  0  0  0  2  0  0  0  0  0  0
   16.5520   15.2180   13.6440 N   0  0  0  0  0  0  0  0  0  0  0  0
   15.5910   14.1090   13.4940 C   0  0  0  0  0  2  0  0  0  0  0  0
   14.9060   14.1260   12.1310 C   0  0  0  0  0  1  0  0  0  0  0  0
   15.8550   16.4770   13.9700 C   0  0  0  0  0  2  0  0  0  0  0  0
   15.1650   16.4110   15.3290 C   0  0  0  0  0  1  0  0  0  0  0  0
   17.6010   13.3880   15.0060 C   0  0  0  0  0  2  0  0  0  0  0  0
   17.7880   13.1270   16.4250 N   0  0  0  0  0  0  0  0  0  0  0  0
   17.5010   11.8960   16.9730 C   0  0  0  0  0  0  0  0  0  0  0  0
   17.0670   10.9490   16.3280 O   0  0  0  0  0  0  0  0  0  0  0  0
   18.3240   13.8010   16.9520 H   0  0  0  0  0  0  0  0  0  0  0  0
   17.7840   11.7310   18.4240 C   0  0  0  0  0  0  0  0  0  0  0  0
   19.0620   12.0610   18.8950 C   0  0  0  0  0  3  0  0  0  0  0  0
   16.8270   11.2310   19.3150 C   0  0  0  0  0  3  0  0  0  0  0  0
   19.3740   11.9190   20.2490 C   0  0  0  0  0  3  0  0  0  0  0  0
   17.1410   11.0890   20.6720 C   0  0  0  0  0  0  0  0  0  0  0  0
   18.4130   11.4360   21.1410 C   0  0  0  0  0  0  0  0  0  0  0  0
   15.9080   10.4720   21.7160 Cl  0  0  0  0  0  0  0  0  0  0  0  0
   18.8610   11.2880   22.8030 Cl  0  0  0  0  0  0  0  0  0  0  0  0
  1  7  1  0
  2  5  1  0
  2  1  1  0
  3  2  1  0
  4  3  1  0
  5  6  1  0
  7  8  1  0
  8 11  1  0
  8  9  1  0
  9 12  1  0
 10  9  2  0
 12 13  1  0
 12 14  2  0
 13 15  2  0
 14 16  1  0
 15 17  1  0
 16 17  2  0
 16 18  1  0
 17 19  1  0
M  RAD  8   1   3   3   3   4   2   5   3   6   2   7   3  13   2  14   2
M  RAD  1  15   2
M  END
>  <vina_score>  (5) 
-5.0229999999999997

>  <pose_id>  (5) 
5

$$$$
