
     RDKit          3D

 23 24  0  0  1  0  0  0  0  0999 V2000
   23.0170   11.5190   12.6280 C   0  0  2  0  0  0  0  0  0  0  0  0
   24.2930   11.6400   13.4710 C   0  0  0  0  0  1  0  0  0  0  0  0
   22.6840   12.8350   12.0580 C   0  0  0  0  0  0  0  0  0  0  0  0
   21.8630   10.9760   13.5000 C   0  0  0  0  0  2  0  0  0  0  0  0
   20.4320   11.2360   13.0020 C   0  0  0  0  0  2  0  0  0  0  0  0
   19.5730   12.0700   13.9410 C   0  0  0  0  0  1  0  0  0  0  0  0
   23.2980   10.6210   11.5550 O   0  0  0  0  0  0  0  0  0  0  0  0
   22.4490   10.2820   11.2250 H   0  0  0  0  0  0  0  0  0  0  0  0
   22.4120   13.9060   11.5840 C   0  0  0  0  0  0  0  0  0  0  0  0
   22.0850   15.2320   11.0120 C   0  0  2  0  0  0  0  0  0  0  0  0
   22.9570   15.4370    9.7600 C   0  0  0  0  0  1  0  0  0  0  0  0
   22.4790   16.2240   11.9680 O   0  0  0  0  0  0  0  0  0  0  0  0
   22.8700   15.7330   12.7100 H   0  0  0  0  0  0  0  0  0  0  0  0
   20.5930   15.4450   10.7440 C   0  0  0  0  0  0  0  0  0  0  0  0
   20.1190   16.0350    9.5600 C   0  0  0  0  0  3  0  0  0  0  0  0
   19.6300   14.9940   11.6720 C   0  0  0  0  0  3  0  0  0  0  0  0
   18.7470   16.2000    9.3290 C   0  0  0  0  0  3  0  0  0  0  0  0
   18.2490   15.1620   11.4630 C   0  0  0  0  0  0  0  0  0  0  0  0
   17.8020   15.7750   10.2740 C   0  0  0  0  0  0  0  0  0  0  0  0
   17.3020   14.7310   12.4110 C   0  0  0  0  0  3  0  0  0  0  0  0
   16.4230   15.9410   10.0610 C   0  0  0  0  0  3  0  0  0  0  0  0
   15.9360   14.9100   12.1900 C   0  0  0  0  0  3  0  0  0  0  0  0
   15.4960   15.5140   11.0150 C   0  0  0  0  0  3  0  0  0  0  0  0
  1  2  1  1
  1  4  1  0
  3  1  1  0
  5  4  1  0
  5  6  1  0
  7  1  1  0
  8  7  1  0
  9  3  3  0
 10 11  1  6
 10  9  1  0
 10 12  1  0
 12 13  1  0
 14 10  1  0
 14 16  2  0
 15 14  1  0
 17 15  2  0
 17 19  1  0
 18 16  1  0
 18 20  2  0
 19 18  1  0
 21 19  2  0
 21 23  1  0
 22 20  1  0
 23 22  2  0
M  RAD  8   2   2   4   3   5   3   6   2  11   2  15   2  16   2  17   2
M  RAD  4  20   2  21   2  22   2  23   2
M  END
>  <vina_score>  (1) 
-7.2880000000000003

>  <pose_id>  (1) 
1

$$$$

     RDKit          3D

 23 24  0  0  1  0  0  0  0  0999 V2000
   22.9070   11.4470   12.8900 C   0  0  2  0  0  0  0  0  0  0  0  0
   24.1020   10.8030   12.1760 C   0  0  0  0  0  1  0  0  0  0  0  0
   22.6130   12.7490   12.2690 C   0  0  0  0  0  0  0  0  0  0  0  0
   23.2170   11.6000   14.3960 C   0  0  0  0  0  2  0  0  0  0  0  0
   24.4570   12.4270   14.7710 C   0  0  0  0  0  2  0  0  0  0  0  0
   25.4860   11.6860   15.6120 C   0  0  0  0  0  1  0  0  0  0  0  0
   21.7820   10.5910   12.6960 O   0  0  0  0  0  0  0  0  0  0  0  0
   21.1400   11.0690   12.1440 H   0  0  0  0  0  0  0  0  0  0  0  0
   22.3650   13.8100   11.7610 C   0  0  0  0  0  0  0  0  0  0  0  0
   22.0660   15.1240   11.1470 C   0  0  2  0  0  0  0  0  0  0  0  0
   22.9490   15.2730    9.8940 C   0  0  0  0  0  1  0  0  0  0  0  0
   22.4750   16.1370   12.0740 O   0  0  0  0  0  0  0  0  0  0  0  0
   22.1920   15.8230   12.9490 H   0  0  0  0  0  0  0  0  0  0  0  0
   20.5800   15.3580   10.8640 C   0  0  0  0  0  0  0  0  0  0  0  0
   20.1250   15.9550    9.6760 C   0  0  0  0  0  3  0  0  0  0  0  0
   19.6010   14.9190   11.7820 C   0  0  0  0  0  3  0  0  0  0  0  0
   18.7580   16.1390    9.4310 C   0  0  0  0  0  3  0  0  0  0  0  0
   18.2250   15.1050   11.5590 C   0  0  0  0  0  0  0  0  0  0  0  0
   17.7980   15.7260   10.3660 C   0  0  0  0  0  0  0  0  0  0  0  0
   17.2630   14.6870   12.4970 C   0  0  0  0  0  3  0  0  0  0  0  0
   16.4240   15.9100   10.1400 C   0  0  0  0  0  3  0  0  0  0  0  0
   15.9010   14.8840   12.2620 C   0  0  0  0  0  3  0  0  0  0  0  0
   15.4820   15.4950   11.0840 C   0  0  0  0  0  3  0  0  0  0  0  0
  1  2  1  6
  1  4  1  0
  3  1  1  0
  4  5  1  0
  5  6  1  0
  7  1  1  0
  8  7  1  0
  9  3  3  0
 10 11  1  6
 10  9  1  0
 10 12  1  0
 12 13  1  0
 14 10  1  0
 14 16  2  0
 15 14  1  0
 17 15  2  0
 17 19  1  0
 18 16  1  0
 18 20  2  0
 19 18  1  0
 21 19  2  0
 21 23  1  0
 22 20  1  0
 23 22  2  0
M  RAD  8   2   2   4   3   5   3   6   2  11   2  15   2  16   2  17   2
M  RAD  4  20   2  21   2  22   2  23   2
M  END
>  <vina_score>  (2) 
-7.2160000000000002

>  <pose_id>  (2) 
2

$$$$

     RDKit          3D

 23 24  0  0  1  0  0  0  0  0999 V2000
   23.7410   11.1880   12.2440 C   0  0  2  0  0  0  0  0  0  0  0  0
   24.4620   10.6310   11.0110 C   0  0  0  0  0  1  0  0  0  0  0  0
   23.1910   12.5160   11.9280 C   0  0  0  0  0  0  0  0  0  0  0  0
   24.7200   11.2550   13.4370 C   0  0  0  0  0  2  0  0  0  0  0  0
   24.1020   11.3290   14.8430 C   0  0  0  0  0  2  0  0  0  0  0  0
   24.5110   12.5490   15.6550 C   0  0  0  0  0  1  0  0  0  0  0  0
   22.6560   10.3090   12.5380 O   0  0  0  0  0  0  0  0  0  0  0  0
   21.9440   10.4970   11.9040 H   0  0  0  0  0  0  0  0  0  0  0  0
   22.7330   13.5980   11.6720 C   0  0  0  0  0  0  0  0  0  0  0  0
   22.1780   14.9370   11.3690 C   0  0  2  0  0  0  0  0  0  0  0  0
   22.7600   15.3970   10.0190 C   0  0  0  0  0  1  0  0  0  0  0  0
   22.6640   15.8420   12.3670 O   0  0  0  0  0  0  0  0  0  0  0  0
   21.9140   16.4220   12.5840 H   0  0  0  0  0  0  0  0  0  0  0  0
   20.6490   15.0060   11.4170 C   0  0  0  0  0  0  0  0  0  0  0  0
   19.9070   14.4880   12.4920 C   0  0  0  0  0  3  0  0  0  0  0  0
   19.9320   15.6550   10.3880 C   0  0  0  0  0  3  0  0  0  0  0  0
   18.5090   14.5820   12.5210 C   0  0  0  0  0  3  0  0  0  0  0  0
   18.5290   15.7480   10.3950 C   0  0  0  0  0  0  0  0  0  0  0  0
   17.8070   15.2020   11.4770 C   0  0  0  0  0  0  0  0  0  0  0  0
   17.8270   16.3740    9.3480 C   0  0  0  0  0  3  0  0  0  0  0  0
   16.4060   15.2960   11.4880 C   0  0  0  0  0  3  0  0  0  0  0  0
   16.4340   16.4540    9.3680 C   0  0  0  0  0  3  0  0  0  0  0  0
   15.7230   15.9160   10.4370 C   0  0  0  0  0  3  0  0  0  0  0  0
  1  2  1  6
  1  7  1  0
  1  4  1  0
  3  1  1  0
  4  5  1  0
  5  6  1  0
  8  7  1  0
  9  3  3  0
 10 11  1  6
 10 14  1  0
 10  9  1  0
 10 12  1  0
 12 13  1  0
 14 15  1  0
 15 17  2  0
 16 18  1  0
 16 14  2  0
 18 19  1  0
 19 21  2  0
 19 17  1  0
 20 22  1  0
 20 18  2  0
 22 23  2  0
 23 21  1  0
M  RAD  8   2   2   4   3   5   3   6   2  11   2  15   2  16   2  17   2
M  RAD  4  20   2  21   2  22   2  23   2
M  END
>  <vina_score>  (3) 
-7.1040000000000001

>  <pose_id>  (3) 
3

$$$$

     RDKit          3D

 23 24  0  0  1  0  0  0  0  0999 V2000
   18.5860   11.9310   16.5590 C   0  0  2  0  0  0  0  0  0  0  0  0
   17.7740   10.9210   17.3800 C   0  0  0  0  0  1  0  0  0  0  0  0
   17.6810   12.6670   15.6610 C   0  0  0  0  0  0  0  0  0  0  0  0
   19.6890   11.1950   15.7660 C   0  0  0  0  0  2  0  0  0  0  0  0
   20.4530   12.0130   14.7110 C   0  0  0  0  0  2  0  0  0  0  0  0
   20.2390   11.5570   13.2750 C   0  0  0  0  0  1  0  0  0  0  0  0
   19.1650   12.8590   17.4760 O   0  0  0  0  0  0  0  0  0  0  0  0
   20.0180   12.4950   17.7650 H   0  0  0  0  0  0  0  0  0  0  0  0
   16.9460   13.2760   14.9300 C   0  0  0  0  0  0  0  0  0  0  0  0
   16.0290   14.0130   14.0310 C   0  0  2  0  0  0  0  0  0  0  0  0
   15.2970   15.0780   14.8680 C   0  0  0  0  0  1  0  0  0  0  0  0
   15.0400   13.0870   13.5680 O   0  0  0  0  0  0  0  0  0  0  0  0
   14.6570   13.4870   12.7690 H   0  0  0  0  0  0  0  0  0  0  0  0
   16.7090   14.5930   12.7870 C   0  0  0  0  0  0  0  0  0  0  0  0
   15.9810   15.1740   11.7350 C   0  0  0  0  0  3  0  0  0  0  0  0
   18.1170   14.6120   12.6870 C   0  0  0  0  0  3  0  0  0  0  0  0
   16.6270   15.7160   10.6160 C   0  0  0  0  0  3  0  0  0  0  0  0
   18.7830   15.1420   11.5660 C   0  0  0  0  0  0  0  0  0  0  0  0
   18.0250   15.7010   10.5160 C   0  0  0  0  0  0  0  0  0  0  0  0
   20.1860   15.1280   11.4690 C   0  0  0  0  0  3  0  0  0  0  0  0
   18.6890   16.2330    9.3970 C   0  0  0  0  0  3  0  0  0  0  0  0
   20.8310   15.6540   10.3490 C   0  0  0  0  0  3  0  0  0  0  0  0
   20.0830   16.2060    9.3130 C   0  0  0  0  0  3  0  0  0  0  0  0
  1  2  1  1
  1  7  1  0
  3  1  1  0
  4  1  1  0
  5  4  1  0
  6  5  1  0
  7  8  1  0
  9  3  3  0
 10 11  1  1
 10  9  1  0
 12 10  1  0
 13 12  1  0
 14 10  1  0
 15 14  1  0
 16 14  2  0
 17 15  2  0
 18 16  1  0
 19 17  1  0
 19 18  1  0
 20 18  2  0
 21 19  2  0
 22 20  1  0
 23 21  1  0
 23 22  2  0
M  RAD  8   2   2   4   3   5   3   6   2  11   2  15   2  16   2  17   2
M  RAD  4  20   2  21   2  22   2  23   2
M  END
>  <vina_score>  (4) 
-6.718

>  <pose_id>  (4) 
4

$$$$

     RDKit          3D

 23 24  0  0  1  0  0  0  0  0999 V2000
   17.8820   11.5990   16.1920 C   0  0  2  0  0  0  0  0  0  0  0  0
   19.3610   11.5690   15.7880 C   0  0  0  0  0  1  0  0  0  0  0  0
   17.1600   12.5430   15.3220 C   0  0  0  0  0  0  0  0  0  0  0  0
   17.7530   11.9960   17.6800 C   0  0  0  0  0  2  0  0  0  0  0  0
   16.6390   11.3120   18.4890 C   0  0  0  0  0  2  0  0  0  0  0  0
   15.2880   12.0100   18.4290 C   0  0  0  0  0  1  0  0  0  0  0  0
   17.3520   10.2920   15.9760 O   0  0  0  0  0  0  0  0  0  0  0  0
   16.5220   10.2240   16.4760 H   0  0  0  0  0  0  0  0  0  0  0  0
   16.5640   13.3070   14.6100 C   0  0  0  0  0  0  0  0  0  0  0  0
   15.8190   14.2360   13.7300 C   0  0  2  0  0  0  0  0  0  0  0  0
   15.2390   15.3590   14.6100 C   0  0  0  0  0  1  0  0  0  0  0  0
   14.7100   13.5150   13.1800 O   0  0  0  0  0  0  0  0  0  0  0  0
   13.9630   13.6860   13.7770 H   0  0  0  0  0  0  0  0  0  0  0  0
   16.6340   14.7640   12.5460 C   0  0  0  0  0  0  0  0  0  0  0  0
   16.0320   15.3710   11.4300 C   0  0  0  0  0  3  0  0  0  0  0  0
   18.0440   14.7070   12.5700 C   0  0  0  0  0  3  0  0  0  0  0  0
   16.8020   15.8650   10.3690 C   0  0  0  0  0  3  0  0  0  0  0  0
   18.8330   15.1870   11.5080 C   0  0  0  0  0  0  0  0  0  0  0  0
   18.2010   15.7730   10.3910 C   0  0  0  0  0  0  0  0  0  0  0  0
   20.2370   15.0980   11.5340 C   0  0  0  0  0  3  0  0  0  0  0  0
   18.9860   16.2560    9.3310 C   0  0  0  0  0  3  0  0  0  0  0  0
   21.0040   15.5750   10.4700 C   0  0  0  0  0  3  0  0  0  0  0  0
   20.3800   16.1550    9.3690 C   0  0  0  0  0  3  0  0  0  0  0  0
  1  2  1  6
  1  4  1  0
  3  1  1  0
  4  5  1  0
  6  5  1  0
  7  1  1  0
  7  8  1  0
  9  3  3  0
 10 11  1  1
 10  9  1  0
 12 10  1  0
 12 13  1  0
 14 16  2  0
 14 10  1  0
 15 14  1  0
 17 19  1  0
 17 15  2  0
 18 20  2  0
 18 16  1  0
 19 18  1  0
 21 23  1  0
 21 19  2  0
 22 20  1  0
 23 22  2  0
M  RAD  8   2   2   4   3   5   3   6   2  11   2  15   2  16   2  17   2
M  RAD  4  20   2  21   2  22   2  23   2
M  END
>  <vina_score>  (5) 
-6.3869999999999996

>  <pose_id>  (5) 
5

$$$$
