
     RDKit          3D

 23 24  0  0  0  0  0  0  0  0999 V2000
   21.1260    9.8510   16.2690 C   0  0  0  0  0  2  0  0  0  0  0  0
   22.0600   10.7870   15.4890 C   0  0  0  0  0  0  0  0  0  0  0  0
   23.3810   10.3820   15.5290 N   0  0  0  0  0  0  0  0  0  0  0  0
   21.6550   11.8070   14.9410 O   0  0  0  0  0  0  0  0  0  0  0  0
   23.4830    9.4130   15.8220 H   0  0  0  0  0  0  0  0  0  0  0  0
   24.4810   11.0040   14.7860 C   0  0  2  0  0  0  0  0  0  0  0  0
   24.7290   12.4460   15.2560 C   0  0  0  0  0  1  0  0  0  0  0  0
   24.1940   10.9830   13.2770 C   0  0  0  0  0  1  0  0  0  0  0  0
   25.7570   10.1850   15.0570 C   0  0  0  0  0  1  0  0  0  0  0  0
   20.7070   10.4620   17.5610 N   0  0  0  0  0  0  0  0  0  0  0  0
   21.4800    9.8790   18.6800 C   0  0  0  0  0  2  0  0  0  0  0  0
   19.2510   10.3450   17.7550 C   0  0  0  0  0  2  0  0  0  0  0  0
   20.8070   10.1320   20.0270 C   0  0  0  0  0  2  0  0  0  0  0  0
   18.8460    9.2150   18.6970 C   0  0  0  0  0  2  0  0  0  0  0  0
   19.4460    9.4100   20.1070 C   0  0  1  0  0  0  0  0  0  0  0  0
   19.6860    8.0770   20.5970 O   0  0  0  0  0  0  0  0  0  0  0  0
   20.4690    7.7370   20.1270 H   0  0  0  0  0  0  0  0  0  0  0  0
   18.5560   10.1170   21.1350 C   0  0  0  0  0  0  0  0  0  0  0  0
   17.1590    9.9800   21.1670 C   0  0  0  0  0  3  0  0  0  0  0  0
   19.1500   10.9740   22.0840 C   0  0  0  0  0  3  0  0  0  0  0  0
   16.3910   10.6580   22.1210 C   0  0  0  0  0  3  0  0  0  0  0  0
   18.3840   11.6500   23.0360 C   0  0  0  0  0  3  0  0  0  0  0  0
   17.0020   11.4890   23.0550 C   0  0  0  0  0  3  0  0  0  0  0  0
  1 10  1  0
  2  3  1  0
  2  1  1  0
  3  5  1  0
  4  2  2  0
  6  9  1  6
  6  7  1  0
  6  3  1  0
  8  6  1  0
 10 12  1  0
 10 11  1  0
 11 13  1  0
 12 14  1  0
 13 15  1  0
 14 15  1  0
 15 16  1  1
 15 18  1  0
 17 16  1  0
 18 19  2  0
 18 20  1  0
 19 21  1  0
 20 22  2  0
 21 23  2  0
 22 23  1  0
M  RAD  8   1   3   7   2   8   2   9   2  11   3  12   3  13   3  14   3
M  RAD  5  19   2  20   2  21   2  22   2  23   2
M  END
>  <vina_score>  (1) 
-6.5620000000000003

>  <pose_id>  (1) 
1

$$$$

     RDKit          3D

 23 24  0  0  0  0  0  0  0  0999 V2000
   16.7210   12.7640   16.4700 C   0  0  0  0  0  2  0  0  0  0  0  0
   17.7190   12.2990   17.5390 C   0  0  0  0  0  0  0  0  0  0  0  0
   17.1990   11.3280   18.3730 N   0  0  0  0  0  0  0  0  0  0  0  0
   18.8360   12.7940   17.6500 O   0  0  0  0  0  0  0  0  0  0  0  0
   16.3660   10.8880   17.9870 H   0  0  0  0  0  0  0  0  0  0  0  0
   17.9480   10.6090   19.4090 C   0  0  2  0  0  0  0  0  0  0  0  0
   18.4350   11.5650   20.5100 C   0  0  0  0  0  1  0  0  0  0  0  0
   19.1410    9.8620   18.7940 C   0  0  0  0  0  1  0  0  0  0  0  0
   16.9990    9.5820   20.0520 C   0  0  0  0  0  1  0  0  0  0  0  0
   17.3800   13.6350   15.4580 N   0  0  0  0  0  0  0  0  0  0  0  0
   16.7110   14.9530   15.4000 C   0  0  0  0  0  2  0  0  0  0  0  0
   17.4390   12.9690   14.1440 C   0  0  0  0  0  2  0  0  0  0  0  0
   17.0460   15.7030   14.1130 C   0  0  0  0  0  2  0  0  0  0  0  0
   16.3680   13.4440   13.1670 C   0  0  0  0  0  2  0  0  0  0  0  0
   16.4930   14.9570   12.8810 C   0  0  1  0  0  0  0  0  0  0  0  0
   15.1420   15.4080   12.6670 O   0  0  0  0  0  0  0  0  0  0  0  0
   14.8630   15.8680   13.4790 H   0  0  0  0  0  0  0  0  0  0  0  0
   17.3040   15.3520   11.6420 C   0  0  0  0  0  0  0  0  0  0  0  0
   18.7070   15.3390   11.6030 C   0  0  0  0  0  3  0  0  0  0  0  0
   16.6220   15.7810   10.4840 C   0  0  0  0  0  3  0  0  0  0  0  0
   19.3990   15.7220   10.4480 C   0  0  0  0  0  3  0  0  0  0  0  0
   17.3130   16.1620    9.3320 C   0  0  0  0  0  3  0  0  0  0  0  0
   18.7030   16.1300    9.3140 C   0  0  0  0  0  3  0  0  0  0  0  0
  1  2  1  0
  2  4  2  0
  2  3  1  0
  3  6  1  0
  5  3  1  0
  6  9  1  1
  6  7  1  0
  8  6  1  0
 10  1  1  0
 11 10  1  0
 12 10  1  0
 13 11  1  0
 14 12  1  0
 15 14  1  0
 15 13  1  0
 15 16  1  6
 16 17  1  0
 18 15  1  0
 19 18  2  0
 20 18  1  0
 21 19  1  0
 22 20  2  0
 23 22  1  0
 23 21  2  0
M  RAD  8   1   3   7   2   8   2   9   2  11   3  12   3  13   3  14   3
M  RAD  5  19   2  20   2  21   2  22   2  23   2
M  END
>  <vina_score>  (2) 
-6.444

>  <pose_id>  (2) 
2

$$$$

     RDKit          3D

 23 24  0  0  0  0  0  0  0  0999 V2000
   22.4090    8.6250   17.6410 C   0  0  0  0  0  2  0  0  0  0  0  0
   21.0320    8.8470   18.2830 C   0  0  0  0  0  0  0  0  0  0  0  0
   21.1060    9.5010   19.4990 N   0  0  0  0  0  0  0  0  0  0  0  0
   19.9980    8.4310   17.7730 O   0  0  0  0  0  0  0  0  0  0  0  0
   22.0010    9.9640   19.6380 H   0  0  0  0  0  0  0  0  0  0  0  0
   19.9570    9.9550   20.2890 C   0  0  2  0  0  0  0  0  0  0  0  0
   19.0190    8.7870   20.6320 C   0  0  0  0  0  1  0  0  0  0  0  0
   19.1840   11.0500   19.5390 C   0  0  0  0  0  1  0  0  0  0  0  0
   20.4930   10.5430   21.6070 C   0  0  0  0  0  1  0  0  0  0  0  0
   22.4330    9.1130   16.2340 N   0  0  0  0  0  0  0  0  0  0  0  0
   23.2840    8.2350   15.4010 C   0  0  0  0  0  2  0  0  0  0  0  0
   22.8410   10.5270   16.1710 C   0  0  0  0  0  2  0  0  0  0  0  0
   23.6930    8.9150   14.0960 C   0  0  0  0  0  2  0  0  0  0  0  0
   24.3000   10.7280   15.7700 C   0  0  0  0  0  2  0  0  0  0  0  0
   24.5880   10.1400   14.3710 C   0  0  1  0  0  0  0  0  0  0  0  0
   25.9520    9.6800   14.4350 O   0  0  0  0  0  0  0  0  0  0  0  0
   26.2950    9.9260   15.3130 H   0  0  0  0  0  0  0  0  0  0  0  0
   24.4940   11.1130   13.1900 C   0  0  0  0  0  0  0  0  0  0  0  0
   24.5370   10.7030   11.8490 C   0  0  0  0  0  3  0  0  0  0  0  0
   24.3890   12.4960   13.4470 C   0  0  0  0  0  3  0  0  0  0  0  0
   24.4590   11.6340   10.8070 C   0  0  0  0  0  3  0  0  0  0  0  0
   24.3100   13.4260   12.4080 C   0  0  0  0  0  3  0  0  0  0  0  0
   24.3440   12.9930   11.0860 C   0  0  0  0  0  3  0  0  0  0  0  0
  1  2  1  0
  2  3  1  0
  3  5  1  0
  3  6  1  0
  4  2  2  0
  6  7  1  1
  6  9  1  0
  8  6  1  0
 10  1  1  0
 11 10  1  0
 12 10  1  0
 13 15  1  0
 13 11  1  0
 14 12  1  0
 15 16  1  1
 15 14  1  0
 16 17  1  0
 18 20  1  0
 18 15  1  0
 19 18  2  0
 21 23  2  0
 21 19  1  0
 22 20  2  0
 23 22  1  0
M  RAD  8   1   3   7   2   8   2   9   2  11   3  12   3  13   3  14   3
M  RAD  5  19   2  20   2  21   2  22   2  23   2
M  END
>  <vina_score>  (3) 
-6.3689999999999998

>  <pose_id>  (3) 
3

$$$$

     RDKit          3D

 23 24  0  0  0  0  0  0  0  0999 V2000
   18.7140   12.0400   16.0440 C   0  0  0  0  0  2  0  0  0  0  0  0
   19.8780   11.0730   16.3000 C   0  0  0  0  0  0  0  0  0  0  0  0
   20.4040   11.1920   17.5720 N   0  0  0  0  0  0  0  0  0  0  0  0
   20.3080   10.3220   15.4310 O   0  0  0  0  0  0  0  0  0  0  0  0
   19.7800   11.6840   18.2080 H   0  0  0  0  0  0  0  0  0  0  0  0
   21.4400   10.3270   18.1460 C   0  0  2  0  0  0  0  0  0  0  0  0
   22.7530   10.4260   17.3520 C   0  0  0  0  0  1  0  0  0  0  0  0
   20.9610    8.8680   18.1930 C   0  0  0  0  0  1  0  0  0  0  0  0
   21.7110   10.8040   19.5840 C   0  0  0  0  0  1  0  0  0  0  0  0
   18.7560   12.5800   14.6560 N   0  0  0  0  0  0  0  0  0  0  0  0
   19.7450   13.6760   14.5620 C   0  0  0  0  0  2  0  0  0  0  0  0
   17.4130   12.9850   14.2040 C   0  0  0  0  0  2  0  0  0  0  0  0
   19.5200   14.5360   13.3200 C   0  0  0  0  0  2  0  0  0  0  0  0
   17.1680   14.4890   14.2790 C   0  0  0  0  0  2  0  0  0  0  0  0
   18.1650   15.2700   13.3960 C   0  0  1  0  0  0  0  0  0  0  0  0
   18.3800   16.5150   14.0890 O   0  0  0  0  0  0  0  0  0  0  0  0
   18.7340   17.1460   13.4370 H   0  0  0  0  0  0  0  0  0  0  0  0
   17.6950   15.6170   11.9800 C   0  0  0  0  0  0  0  0  0  0  0  0
   18.5670   15.7390   10.8870 C   0  0  0  0  0  3  0  0  0  0  0  0
   16.3240   15.8570   11.7510 C   0  0  0  0  0  3  0  0  0  0  0  0
   18.0860   16.0700    9.6150 C   0  0  0  0  0  3  0  0  0  0  0  0
   15.8440   16.1880   10.4820 C   0  0  0  0  0  3  0  0  0  0  0  0
   16.7270   16.2910    9.4120 C   0  0  0  0  0  3  0  0  0  0  0  0
  1  2  1  0
  2  3  1  0
  3  6  1  0
  3  5  1  0
  4  2  2  0
  6  8  1  1
  6  9  1  0
  7  6  1  0
 10  1  1  0
 11 10  1  0
 12 14  1  0
 12 10  1  0
 13 15  1  0
 13 11  1  0
 15 16  1  1
 15 14  1  0
 17 16  1  0
 18 15  1  0
 19 18  2  0
 20 18  1  0
 21 19  1  0
 22 20  2  0
 23 21  2  0
 23 22  1  0
M  RAD  8   1   3   7   2   8   2   9   2  11   3  12   3  13   3  14   3
M  RAD  5  19   2  20   2  21   2  22   2  23   2
M  END
>  <vina_score>  (4) 
-6.1180000000000003

>  <pose_id>  (4) 
4

$$$$

     RDKit          3D

 23 24  0  0  0  0  0  0  0  0999 V2000
   19.3940   14.7150   12.3380 C   0  0  0  0  0  2  0  0  0  0  0  0
   18.3580   14.9730   13.4420 C   0  0  0  0  0  0  0  0  0  0  0  0
   17.2530   14.1510   13.3430 N   0  0  0  0  0  0  0  0  0  0  0  0
   18.5010   15.8590   14.2780 O   0  0  0  0  0  0  0  0  0  0  0  0
   17.4200   13.3430   12.7460 H   0  0  0  0  0  0  0  0  0  0  0  0
   16.1570   14.0820   14.3140 C   0  0  2  0  0  0  0  0  0  0  0  0
   15.4790   15.4510   14.4890 C   0  0  0  0  0  1  0  0  0  0  0  0
   16.6680   13.5700   15.6700 C   0  0  0  0  0  1  0  0  0  0  0  0
   15.1080   13.0920   13.7750 C   0  0  0  0  0  1  0  0  0  0  0  0
   20.7410   14.4480   12.9150 N   0  0  0  0  0  0  0  0  0  0  0  0
   21.7630   14.4310   11.8450 C   0  0  0  0  0  2  0  0  0  0  0  0
   20.7380   13.2130   13.7180 C   0  0  0  0  0  2  0  0  0  0  0  0
   23.0480   13.7430   12.3000 C   0  0  0  0  0  2  0  0  0  0  0  0
   21.3270   12.0070   12.9920 C   0  0  0  0  0  2  0  0  0  0  0  0
   22.7990   12.2490   12.5930 C   0  0  1  0  0  0  0  0  0  0  0  0
   22.9750   11.5250   11.3600 O   0  0  0  0  0  0  0  0  0  0  0  0
   23.9300   11.5130   11.1710 H   0  0  0  0  0  0  0  0  0  0  0  0
   23.8630   11.7390   13.5720 C   0  0  0  0  0  0  0  0  0  0  0  0
   24.4730   10.4800   13.4580 C   0  0  0  0  0  3  0  0  0  0  0  0
   24.2380   12.5500   14.6620 C   0  0  0  0  0  3  0  0  0  0  0  0
   25.4310   10.0570   14.3870 C   0  0  0  0  0  3  0  0  0  0  0  0
   25.1940   12.1290   15.5890 C   0  0  0  0  0  3  0  0  0  0  0  0
   25.7930   10.8810   15.4480 C   0  0  0  0  0  3  0  0  0  0  0  0
  1 10  1  0
  1  2  1  0
  2  4  2  0
  3  2  1  0
  3  6  1  0
  5  3  1  0
  6  7  1  1
  6  8  1  0
  9  6  1  0
 10 12  1  0
 11 13  1  0
 11 10  1  0
 13 15  1  0
 14 12  1  0
 15 14  1  0
 15 18  1  0
 15 16  1  6
 17 16  1  0
 18 20  1  0
 19 18  2  0
 19 21  1  0
 20 22  2  0
 21 23  2  0
 23 22  1  0
M  RAD  8   1   3   7   2   8   2   9   2  11   3  12   3  13   3  14   3
M  RAD  5  19   2  20   2  21   2  22   2  23   2
M  END
>  <vina_score>  (5) 
-5.9219999999999997

>  <pose_id>  (5) 
5

$$$$
