
     RDKit          3D

 43 44  0  0  1  0  0  0  0  0999 V2000
   19.7530   15.7860    9.6940 C   0  0  0  0  0  2  0  0  0  0  0  0
   18.5760   16.3770   10.4780 C   0  0  0  0  0  2  0  0  0  0  0  0
   17.8430   15.3620   11.3590 C   0  0  0  0  0  2  0  0  0  0  0  0
   18.7850   14.6760   12.3480 C   0  0  0  0  0  2  0  0  0  0  0  0
   18.0450   13.8210   13.3620 C   0  0  0  0  0  0  0  0  0  0  0  0
   18.4630   12.7100   13.6880 O   0  0  0  0  0  0  0  0  0  0  0  0
   16.7600   14.4060   13.9270 C   0  0  0  0  0  2  0  0  0  0  0  0
   16.9030   14.9380   15.3520 C   0  0  0  0  0  2  0  0  0  0  0  0
   16.1710   14.1080   16.4100 C   0  0  0  0  0  2  0  0  0  0  0  0
   16.9320   12.8590   16.8380 C   0  0  0  0  0  2  0  0  0  0  0  0
   18.3240   13.1420   16.8240 O   0  0  0  0  0  0  0  0  0  0  0  0
   18.7860   12.3170   16.5970 H   0  0  0  0  0  0  0  0  0  0  0  0
   21.1360   16.3050   10.1030 C   0  0  0  0  0  2  0  0  0  0  0  0
   22.1860   15.2600   10.4820 C   0  0  0  0  0  2  0  0  0  0  0  0
   22.3820   15.0140   11.9790 C   0  0  0  0  0  2  0  0  0  0  0  0
   23.4250   13.9630   12.3860 C   0  0  0  0  0  2  0  0  0  0  0  0
   22.8680   12.5410   12.5810 C   0  0  0  0  0  0  0  0  0  0  0  0
   23.0290   11.6880   11.3820 N   0  0  0  0  0  0  0  0  0  0  0  0
   23.6160   11.7630   13.6760 C   0  0  0  0  0  0  0  0  0  0  0  0
   24.4160   11.1500   11.4470 C   0  0  0  0  0  0  0  0  0  0  0  0
   24.8350   11.1930   12.9340 C   0  0  0  0  0  0  0  0  0  0  0  0
   22.4170   10.8740   11.5290 H   0  0  0  0  0  0  0  0  0  0  0  0
   22.7630   10.7030   14.1420 O   0  0  0  0  0  0  0  0  0  0  0  0
   22.6440   10.6730   15.5680 C   0  0  0  0  0  0  0  0  0  0  0  0
   23.2230    9.4400   16.0100 O   0  0  0  0  0  0  0  0  0  0  0  0
   21.1550   10.7490   15.9610 C   0  0  0  0  0  0  0  0  0  0  0  0
   23.1770    9.2790   17.4290 C   0  0  0  0  0  0  0  0  0  0  0  0
   21.0120   10.5410   17.4670 C   0  0  0  0  0  0  0  0  0  0  0  0
   21.7220    9.2690   17.9300 C   0  0  0  0  0  0  0  0  0  0  0  0
   20.5680   12.0180   15.6220 O   0  0  0  0  0  0  0  0  0  0  0  0
   20.8360   12.6160   16.3490 H   0  0  0  0  0  0  0  0  0  0  0  0
   23.8980    7.9700   17.7760 C   0  0  0  0  0  2  0  0  0  0  0  0
   24.4820    8.0350   19.0750 O   0  0  0  0  0  0  0  0  0  0  0  0
   24.7200    7.1200   19.3160 H   0  0  0  0  0  0  0  0  0  0  0  0
   19.6160   10.4810   17.8090 O   0  0  0  0  0  0  0  0  0  0  0  0
   19.4880    9.5840   18.1780 H   0  0  0  0  0  0  0  0  0  0  0  0
   21.6290    9.2210   19.3590 O   0  0  0  0  0  0  0  0  0  0  0  0
   21.6700    8.2700   19.6070 H   0  0  0  0  0  0  0  0  0  0  0  0
   24.4930    9.7650   10.7880 C   0  0  0  0  0  2  0  0  0  0  0  0
   23.7280    8.8120   11.5310 O   0  0  0  0  0  0  0  0  0  0  0  0
   24.3070    8.4880   12.2430 H   0  0  0  0  0  0  0  0  0  0  0  0
   25.2420    9.9380   13.4680 O   0  0  0  0  0  0  0  0  0  0  0  0
   24.6950    9.2780   12.9830 H   0  0  0  0  0  0  0  0  0  0  0  0
  1 13  1  0
  1  2  1  0
  2  3  1  0
  3  4  1  0
  4  5  1  0
  5  6  2  0
  5  7  1  0
  7  8  1  0
  8  9  1  0
  9 10  1  0
 11 10  1  0
 12 11  1  0
 13 14  1  0
 14 15  1  0
 15 16  1  0
 17 16  1  0
 17 19  1  0
 18 20  1  0
 18 22  1  0
 18 17  1  0
 19 23  1  0
 20 39  1  0
 20 21  1  0
 21 42  1  0
 21 19  1  0
 24 23  1  0
 24 26  1  0
 24 25  1  0
 25 27  1  0
 26 30  1  0
 26 28  1  0
 27 32  1  0
 27 29  1  0
 28 35  1  0
 28 29  1  0
 29 37  1  0
 30 31  1  0
 32 33  1  0
 33 34  1  0
 35 36  1  0
 37 38  1  0
 39 40  1  0
 40 41  1  0
 43 42  1  0
M  RAD  8   1   3   2   3   3   3   4   3   7   3   8   3   9   3  10   3
M  RAD  6  13   3  14   3  15   3  16   3  32   3  39   3
M  END
>  <vina_score>  (1) 
-6.1100000000000003

>  <pose_id>  (1) 
1

$$$$

     RDKit          3D

 43 44  0  0  1  0  0  0  0  0999 V2000
   18.0490   11.6400   21.8040 C   0  0  0  0  0  2  0  0  0  0  0  0
   16.9150   10.8560   22.4740 C   0  0  0  0  0  2  0  0  0  0  0  0
   15.6930   10.6420   21.5760 C   0  0  0  0  0  2  0  0  0  0  0  0
   15.4870    9.1680   21.2310 C   0  0  0  0  0  2  0  0  0  0  0  0
   15.7840    8.8620   19.7740 C   0  0  0  0  0  0  0  0  0  0  0  0
   14.8790    8.6340   18.9700 O   0  0  0  0  0  0  0  0  0  0  0  0
   17.2510    8.8340   19.3770 C   0  0  0  0  0  2  0  0  0  0  0  0
   17.5700    9.6810   18.1450 C   0  0  0  0  0  2  0  0  0  0  0  0
   17.6290   11.1870   18.4160 C   0  0  0  0  0  2  0  0  0  0  0  0
   17.9310   12.0170   17.1740 C   0  0  0  0  0  2  0  0  0  0  0  0
   19.0370   12.8660   17.4460 O   0  0  0  0  0  0  0  0  0  0  0  0
   19.3620   12.6430   18.3340 H   0  0  0  0  0  0  0  0  0  0  0  0
   19.4610   11.1140   22.0850 C   0  0  0  0  0  2  0  0  0  0  0  0
   20.0940   10.2200   21.0190 C   0  0  0  0  0  2  0  0  0  0  0  0
   21.0650   10.9060   20.0550 C   0  0  0  0  0  2  0  0  0  0  0  0
   21.3560   10.1910   18.7270 C   0  0  0  0  0  2  0  0  0  0  0  0
   22.8440   10.1400   18.3340 C   0  0  0  0  0  0  0  0  0  0  0  0
   23.5520    8.9710   18.9030 N   0  0  0  0  0  0  0  0  0  0  0  0
   23.0450    9.9760   16.8190 C   0  0  0  0  0  0  0  0  0  0  0  0
   23.2730    7.8360   17.9810 C   0  0  0  0  0  0  0  0  0  0  0  0
   22.9280    8.4590   16.6090 C   0  0  0  0  0  0  0  0  0  0  0  0
   24.5570    9.1670   18.7930 H   0  0  0  0  0  0  0  0  0  0  0  0
   24.3660   10.4360   16.4840 O   0  0  0  0  0  0  0  0  0  0  0  0
   24.3920   11.2340   15.2970 C   0  0  0  0  0  0  0  0  0  0  0  0
   23.1000   11.8380   15.1700 O   0  0  0  0  0  0  0  0  0  0  0  0
   24.6980   10.3360   14.0810 C   0  0  0  0  0  0  0  0  0  0  0  0
   22.9860   12.6750   14.0180 C   0  0  0  0  0  0  0  0  0  0  0  0
   24.5540   11.1480   12.7950 C   0  0  0  0  0  0  0  0  0  0  0  0
   23.2040   11.8620   12.7290 C   0  0  0  0  0  0  0  0  0  0  0  0
   26.0300    9.7940   14.1280 O   0  0  0  0  0  0  0  0  0  0  0  0
   26.2880    9.8550   15.0700 H   0  0  0  0  0  0  0  0  0  0  0  0
   21.5950   13.3210   14.0430 C   0  0  0  0  0  2  0  0  0  0  0  0
   20.7570   12.7750   13.0270 O   0  0  0  0  0  0  0  0  0  0  0  0
   20.6770   11.8220   13.2190 H   0  0  0  0  0  0  0  0  0  0  0  0
   24.7100   10.2760   11.6620 O   0  0  0  0  0  0  0  0  0  0  0  0
   25.1830    9.4950   12.0120 H   0  0  0  0  0  0  0  0  0  0  0  0
   23.2090   12.6800   11.5520 O   0  0  0  0  0  0  0  0  0  0  0  0
   22.3930   13.2270   11.5930 H   0  0  0  0  0  0  0  0  0  0  0  0
   24.4450    6.8430   17.9710 C   0  0  0  0  0  2  0  0  0  0  0  0
   25.6930    7.5400   17.9910 O   0  0  0  0  0  0  0  0  0  0  0  0
   26.3270    6.9840   17.5040 H   0  0  0  0  0  0  0  0  0  0  0  0
   23.7460    8.0070   15.5350 O   0  0  0  0  0  0  0  0  0  0  0  0
   23.1050    7.7480   14.8340 H   0  0  0  0  0  0  0  0  0  0  0  0
  1 13  1  0
  1  2  1  0
  3  2  1  0
  4  3  1  0
  5  4  1  0
  6  5  2  0
  7  5  1  0
  8  9  1  0
  8  7  1  0
 10 11  1  0
 10  9  1  0
 11 12  1  0
 14 13  1  0
 15 14  1  0
 16 15  1  0
 17 16  1  0
 17 18  1  0
 19 23  1  0
 19 17  1  0
 20 39  1  0
 20 18  1  0
 21 42  1  0
 21 19  1  0
 21 20  1  0
 22 18  1  0
 24 23  1  0
 25 24  1  0
 26 30  1  0
 26 24  1  0
 27 32  1  0
 27 25  1  0
 28 35  1  0
 28 26  1  0
 29 37  1  0
 29 28  1  0
 29 27  1  0
 30 31  1  0
 33 34  1  0
 33 32  1  0
 35 36  1  0
 37 38  1  0
 39 40  1  0
 41 40  1  0
 43 42  1  0
M  RAD  8   1   3   2   3   3   3   4   3   7   3   8   3   9   3  10   3
M  RAD  6  13   3  14   3  15   3  16   3  32   3  39   3
M  END
>  <vina_score>  (2) 
-5.9390000000000001

>  <pose_id>  (2) 
2

$$$$

     RDKit          3D

 43 44  0  0  1  0  0  0  0  0999 V2000
   19.6010   10.7640   22.0390 C   0  0  0  0  0  2  0  0  0  0  0  0
   18.4510   11.7720   21.9370 C   0  0  0  0  0  2  0  0  0  0  0  0
   17.1670   11.3230   22.6420 C   0  0  0  0  0  2  0  0  0  0  0  0
   16.5240   10.1230   21.9490 C   0  0  0  0  0  2  0  0  0  0  0  0
   15.3920   10.5230   21.0190 C   0  0  0  0  0  0  0  0  0  0  0  0
   14.3020   10.8900   21.4580 O   0  0  0  0  0  0  0  0  0  0  0  0
   15.6770   10.4210   19.5290 C   0  0  0  0  0  2  0  0  0  0  0  0
   16.4200   11.6310   18.9630 C   0  0  0  0  0  2  0  0  0  0  0  0
   17.6170   11.2750   18.0760 C   0  0  0  0  0  2  0  0  0  0  0  0
   17.8010   12.2190   16.8950 C   0  0  0  0  0  2  0  0  0  0  0  0
   18.8500   13.1290   17.1910 O   0  0  0  0  0  0  0  0  0  0  0  0
   18.6950   13.4680   18.0890 H   0  0  0  0  0  0  0  0  0  0  0  0
   20.1220   10.2310   20.7000 C   0  0  0  0  0  2  0  0  0  0  0  0
   21.0400   11.1520   19.8950 C   0  0  0  0  0  2  0  0  0  0  0  0
   22.3140   10.5140   19.3380 C   0  0  0  0  0  2  0  0  0  0  0  0
   22.2440    9.9340   17.9180 C   0  0  0  0  0  2  0  0  0  0  0  0
   23.2600   10.5290   16.9250 C   0  0  0  0  0  3  0  0  0  0  0  0
   24.6490   10.0910   17.1880 N   0  0  0  0  0  0  0  0  0  0  0  0
   23.0070   10.0700   15.4800 C   0  0  0  0  0  3  0  0  0  0  0  0
   24.7890    8.7630   16.5290 C   0  0  0  0  0  3  0  0  0  0  0  0
   23.7230    8.7120   15.4110 C   0  0  0  0  0  3  0  0  0  0  0  0
   25.2530   10.7260   16.6470 H   0  0  0  0  0  0  0  0  0  0  0  0
   23.6230   11.0160   14.5890 O   0  0  0  0  0  0  0  0  0  0  0  0
   22.6770   11.6920   13.7560 C   0  0  0  0  0  3  0  0  0  0  0  0
   22.3000   12.8920   14.4380 O   0  0  0  0  0  0  0  0  0  0  0  0
   21.4510   10.7830   13.5290 C   0  0  0  0  0  3  0  0  0  0  0  0
   21.3530   13.6750   13.7090 C   0  0  0  0  0  3  0  0  0  0  0  0
   20.3660   11.5620   12.7880 C   0  0  0  0  0  3  0  0  0  0  0  0
   20.0500   12.8870   13.4840 C   0  0  0  0  0  3  0  0  0  0  0  0
   21.7770    9.6150   12.7560 O   0  0  0  0  0  0  0  0  0  0  0  0
   21.0680    8.9730   12.9660 H   0  0  0  0  0  0  0  0  0  0  0  0
   21.0970   14.9630   14.5030 C   0  0  0  0  0  2  0  0  0  0  0  0
   19.9470   14.8330   15.3350 O   0  0  0  0  0  0  0  0  0  0  0  0
   19.2810   15.4530   14.9830 H   0  0  0  0  0  0  0  0  0  0  0  0
   19.1800   10.7550   12.6970 O   0  0  0  0  0  0  0  0  0  0  0  0
   19.4310    9.8960   13.0920 H   0  0  0  0  0  0  0  0  0  0  0  0
   19.1120   13.5910   12.6610 O   0  0  0  0  0  0  0  0  0  0  0  0
   18.7670   12.9360   12.0140 H   0  0  0  0  0  0  0  0  0  0  0  0
   26.2350    8.5380   16.0610 C   0  0  0  0  0  2  0  0  0  0  0  0
   26.6610    9.6080   15.2140 O   0  0  0  0  0  0  0  0  0  0  0  0
   27.5870    9.4220   14.9780 H   0  0  0  0  0  0  0  0  0  0  0  0
   24.2430    8.4520   14.1120 O   0  0  0  0  0  0  0  0  0  0  0  0
   24.1730    9.3160   13.6450 H   0  0  0  0  0  0  0  0  0  0  0  0
  2  1  1  0
  2  3  1  0
  4  3  1  0
  5  6  2  0
  5  4  1  0
  7  5  1  0
  8  7  1  0
  9  8  1  0
 10 11  1  0
 10  9  1  0
 11 12  1  0
 13  1  1  0
 14 13  1  0
 15 14  1  0
 16 15  1  0
 17 18  1  1
 17 16  1  0
 19 23  1  0
 19 17  1  1
 20 39  1  0
 20 18  1  0
 21 42  1  0
 21 19  1  1
 21 20  1  0
 22 18  1  0
 24 25  1  1
 24 23  1  0
 26 30  1  0
 26 24  1  0
 27 25  1  1
 27 32  1  0
 28 35  1  0
 29 28  1  0
 28 26  1  1
 29 37  1  0
 29 27  1  0
 30 31  1  0
 32 33  1  0
 34 33  1  0
 35 36  1  0
 38 37  1  0
 40 39  1  0
 41 40  1  0
 43 42  1  0
M  END
>  <vina_score>  (3) 
-5.8659999999999997

>  <pose_id>  (3) 
3

$$$$

     RDKit          3D

 43 44  0  0  1  0  0  0  0  0999 V2000
   20.1460   15.8250   10.4450 C   0  0  0  0  0  2  0  0  0  0  0  0
   18.9670   16.1080    9.5070 C   0  0  0  0  0  2  0  0  0  0  0  0
   17.5940   15.8990   10.1540 C   0  0  0  0  0  2  0  0  0  0  0  0
   17.6670   15.9470   11.6790 C   0  0  0  0  0  2  0  0  0  0  0  0
   17.1890   14.6580   12.3270 C   0  0  0  0  0  0  0  0  0  0  0  0
   17.9860   13.8010   12.7090 O   0  0  0  0  0  0  0  0  0  0  0  0
   15.6840   14.4840   12.4510 C   0  0  0  0  0  2  0  0  0  0  0  0
   15.2380   13.9650   13.8180 C   0  0  0  0  0  2  0  0  0  0  0  0
   15.5450   14.9130   14.9810 C   0  0  0  0  0  2  0  0  0  0  0  0
   16.4020   14.2800   16.0710 C   0  0  0  0  0  2  0  0  0  0  0  0
   17.7710   14.4960   15.7630 O   0  0  0  0  0  0  0  0  0  0  0  0
   18.2970   14.0090   16.4210 H   0  0  0  0  0  0  0  0  0  0  0  0
   21.5270   16.1750    9.8810 C   0  0  0  0  0  2  0  0  0  0  0  0
   22.7300   15.4530   10.4900 C   0  0  0  0  0  2  0  0  0  0  0  0
   22.4100   14.3000   11.4430 C   0  0  0  0  0  2  0  0  0  0  0  0
   23.5580   13.3400   11.7910 C   0  0  0  0  0  2  0  0  0  0  0  0
   23.1170   12.0120   12.4350 C   0  0  0  0  0  0  0  0  0  0  0  0
   24.2460   11.0890   12.6840 N   0  0  0  0  0  0  0  0  0  0  0  0
   22.5030   12.2120   13.8300 C   0  0  0  0  0  0  0  0  0  0  0  0
   24.8420   11.5150   13.9810 C   0  0  0  0  0  0  0  0  0  0  0  0
   23.7310   12.2610   14.7520 C   0  0  0  0  0  0  0  0  0  0  0  0
   23.8230   10.1690   12.8720 H   0  0  0  0  0  0  0  0  0  0  0  0
   21.6840   11.0690   14.1320 O   0  0  0  0  0  0  0  0  0  0  0  0
   20.4410   11.4230   14.7460 C   0  0  0  0  0  0  0  0  0  0  0  0
   20.5520   11.0970   16.1360 O   0  0  0  0  0  0  0  0  0  0  0  0
   19.2970   10.6250   14.0880 C   0  0  0  0  0  0  0  0  0  0  0  0
   19.3720   11.4070   16.8780 C   0  0  0  0  0  0  0  0  0  0  0  0
   17.9980   10.8670   14.8520 C   0  0  0  0  0  0  0  0  0  0  0  0
   18.1680   10.6060   16.3490 C   0  0  0  0  0  0  0  0  0  0  0  0
   19.0920   11.0030   12.7150 O   0  0  0  0  0  0  0  0  0  0  0  0
   19.1620   10.1640   12.2150 H   0  0  0  0  0  0  0  0  0  0  0  0
   19.6490   11.0920   18.3540 C   0  0  0  0  0  2  0  0  0  0  0  0
   18.8700   11.9230   19.2110 O   0  0  0  0  0  0  0  0  0  0  0  0
   17.9720   11.9460   18.8310 H   0  0  0  0  0  0  0  0  0  0  0  0
   16.9660   10.0200   14.3170 O   0  0  0  0  0  0  0  0  0  0  0  0
   16.2170   10.6230   14.1360 H   0  0  0  0  0  0  0  0  0  0  0  0
   16.9390   10.9660   16.9910 O   0  0  0  0  0  0  0  0  0  0  0  0
   17.1830   11.3270   17.8730 H   0  0  0  0  0  0  0  0  0  0  0  0
   25.4540   10.3140   14.7190 C   0  0  0  0  0  2  0  0  0  0  0  0
   24.4650    9.3060   14.9430 O   0  0  0  0  0  0  0  0  0  0  0  0
   23.6630    9.7680   15.2430 H   0  0  0  0  0  0  0  0  0  0  0  0
   23.4470   11.7280   16.0410 O   0  0  0  0  0  0  0  0  0  0  0  0
   22.9600   12.4490   16.5010 H   0  0  0  0  0  0  0  0  0  0  0  0
  2  3  1  0
  2  1  1  0
  3  4  1  0
  4  5  1  0
  5  7  1  0
  5  6  2  0
  7  8  1  0
  8  9  1  0
  9 10  1  0
 11 10  1  0
 11 12  1  0
 13  1  1  0
 13 14  1  0
 14 15  1  0
 15 16  1  0
 17 16  1  0
 17 18  1  0
 17 19  1  0
 18 22  1  0
 18 20  1  0
 19 23  1  0
 19 21  1  0
 20 39  1  0
 20 21  1  0
 21 42  1  0
 24 23  1  0
 24 25  1  0
 25 27  1  0
 26 30  1  0
 26 24  1  0
 26 28  1  0
 27 32  1  0
 28 35  1  0
 28 29  1  0
 29 27  1  0
 29 37  1  0
 31 30  1  0
 32 33  1  0
 34 33  1  0
 36 35  1  0
 37 38  1  0
 39 40  1  0
 40 41  1  0
 42 43  1  0
M  RAD  8   1   3   2   3   3   3   4   3   7   3   8   3   9   3  10   3
M  RAD  6  13   3  14   3  15   3  16   3  32   3  39   3
M  END
>  <vina_score>  (4) 
-5.8140000000000001

>  <pose_id>  (4) 
4

$$$$

     RDKit          3D

 43 44  0  0  1  0  0  0  0  0999 V2000
   19.2190   10.8660   21.6720 C   0  0  0  0  0  2  0  0  0  0  0  0
   18.1530   10.2590   20.7520 C   0  0  0  0  0  2  0  0  0  0  0  0
   17.5070   11.2690   19.7990 C   0  0  0  0  0  2  0  0  0  0  0  0
   17.9790   11.0810   18.3580 C   0  0  0  0  0  2  0  0  0  0  0  0
   17.7130   12.3000   17.4920 C   0  0  0  0  0  0  0  0  0  0  0  0
   18.6300   13.0310   17.1190 O   0  0  0  0  0  0  0  0  0  0  0  0
   16.2600   12.5710   17.1380 C   0  0  0  0  0  2  0  0  0  0  0  0
   16.0260   12.8090   15.6470 C   0  0  0  0  0  2  0  0  0  0  0  0
   15.5810   14.2330   15.2990 C   0  0  0  0  0  2  0  0  0  0  0  0
   16.0660   15.2820   16.2930 C   0  0  0  0  0  2  0  0  0  0  0  0
   17.4220   15.5920   16.0080 O   0  0  0  0  0  0  0  0  0  0  0  0
   17.4900   15.7430   15.0500 H   0  0  0  0  0  0  0  0  0  0  0  0
   20.6640   10.4740   21.3430 C   0  0  0  0  0  2  0  0  0  0  0  0
   21.3500   11.2370   20.2090 C   0  0  0  0  0  2  0  0  0  0  0  0
   21.4820   10.4910   18.8800 C   0  0  0  0  0  2  0  0  0  0  0  0
   22.8370    9.8360   18.5760 C   0  0  0  0  0  2  0  0  0  0  0  0
   23.3640   10.0740   17.1480 C   0  0  0  0  0  3  0  0  0  0  0  0
   24.8260    9.8780   17.0310 N   0  0  0  0  0  0  0  0  0  0  0  0
   22.7860    9.0710   16.1360 C   0  0  0  0  0  3  0  0  0  0  0  0
   25.0280    8.4130   16.8590 C   0  0  0  0  0  3  0  0  0  0  0  0
   23.7080    7.8510   16.2820 C   0  0  0  0  0  3  0  0  0  0  0  0
   25.0970   10.2950   16.1300 H   0  0  0  0  0  0  0  0  0  0  0  0
   22.8990    9.6400   14.8200 O   0  0  0  0  0  0  0  0  0  0  0  0
   22.7340   11.0610   14.8130 C   0  0  0  0  0  3  0  0  0  0  0  0
   21.4180   11.3270   14.3180 O   0  0  0  0  0  0  0  0  0  0  0  0
   23.8010   11.6970   13.8980 C   0  0  0  0  0  3  0  0  0  0  0  0
   21.1140   12.7220   14.2630 C   0  0  0  0  0  3  0  0  0  0  0  0
   23.5220   13.1910   13.7490 C   0  0  0  0  0  3  0  0  0  0  0  0
   22.0800   13.4540   13.3140 C   0  0  0  0  0  3  0  0  0  0  0  0
   25.1310   11.5350   14.4220 O   0  0  0  0  0  0  0  0  0  0  0  0
   25.6520   11.1860   13.6700 H   0  0  0  0  0  0  0  0  0  0  0  0
   19.6580   12.8670   13.7990 C   0  0  0  0  0  2  0  0  0  0  0  0
   19.0590   14.0390   14.3490 O   0  0  0  0  0  0  0  0  0  0  0  0
   18.2410   14.1940   13.8410 H   0  0  0  0  0  0  0  0  0  0  0  0
   24.4370   13.7530   12.7930 O   0  0  0  0  0  0  0  0  0  0  0  0
   25.2730   13.2630   12.9310 H   0  0  0  0  0  0  0  0  0  0  0  0
   21.8840   14.8730   13.3120 O   0  0  0  0  0  0  0  0  0  0  0  0
   22.7690   15.2740   13.1620 H   0  0  0  0  0  0  0  0  0  0  0  0
   26.2800    8.1320   16.0130 C   0  0  0  0  0  2  0  0  0  0  0  0
   26.2710    8.9280   14.8250 O   0  0  0  0  0  0  0  0  0  0  0  0
   25.4170    8.7610   14.3870 H   0  0  0  0  0  0  0  0  0  0  0  0
   23.8540    7.1460   15.0540 O   0  0  0  0  0  0  0  0  0  0  0  0
   24.8150    7.2150   14.8470 H   0  0  0  0  0  0  0  0  0  0  0  0
  2  1  1  0
  3  2  1  0
  4  3  1  0
  5  4  1  0
  6  5  2  0
  7  5  1  0
  8  7  1  0
  9  8  1  0
  9 10  1  0
 11 10  1  0
 12 11  1  0
 13  1  1  0
 14 13  1  0
 15 14  1  0
 16 15  1  0
 17 16  1  0
 18 17  1  0
 19 23  1  0
 21 19  1  0
 19 17  1  1
 20 39  1  0
 20 18  1  1
 21 42  1  0
 21 20  1  0
 22 18  1  0
 24 23  1  0
 24 25  1  0
 26 30  1  0
 26 24  1  0
 27 32  1  0
 27 25  1  0
 28 35  1  0
 28 26  1  6
 29 37  1  0
 29 28  1  1
 29 27  1  0
 31 30  1  0
 32 33  1  0
 34 33  1  0
 35 36  1  0
 38 37  1  0
 40 39  1  0
 41 40  1  0
 43 42  1  0
M  END
>  <vina_score>  (5) 
-5.6870000000000003

>  <pose_id>  (5) 
5

$$$$
