
     RDKit          3D

 29 31  0  0  1  0  0  0  0  0999 V2000
   20.6690   13.1630   14.0870 C   0  0  0  0  0  3  0  0  0  0  0  0
   19.4030   13.2810   13.1690 C   0  0  0  0  0  0  0  0  0  0  0  0
   19.1690   14.5900   12.7690 N   0  0  0  0  0  0  0  0  0  0  0  0
   18.7830   12.2920   12.7870 O   0  0  0  0  0  0  0  0  0  0  0  0
   19.9520   15.1920   13.0040 H   0  0  0  0  0  0  0  0  0  0  0  0
   18.1930   15.0980   11.8860 C   0  0  0  0  0  0  0  0  0  0  0  0
   16.8100   15.1390   12.1650 C   0  0  0  0  0  0  0  0  0  0  0  0
   15.9250   15.6170   11.1790 C   0  0  0  0  0  3  0  0  0  0  0  0
   16.3900   16.1100    9.9650 C   0  0  0  0  0  3  0  0  0  0  0  0
   18.6660   15.6440   10.6630 C   0  0  0  0  0  0  0  0  0  0  0  0
   17.7540   16.1390    9.7160 C   0  0  0  0  0  3  0  0  0  0  0  0
   16.1900   14.7580   13.4820 C   0  0  0  0  0  1  0  0  0  0  0  0
   20.1330   15.6790   10.3120 C   0  0  0  0  0  1  0  0  0  0  0  0
   21.9710   12.9330   13.3230 C   0  0  0  0  0  0  0  0  0  0  0  0
   22.0600   12.0190   12.2600 C   0  0  0  0  0  3  0  0  0  0  0  0
   23.1290   13.6410   13.6890 C   0  0  0  0  0  3  0  0  0  0  0  0
   23.2690   11.8160   11.5910 C   0  0  0  0  0  3  0  0  0  0  0  0
   24.3370   13.4360   13.0190 C   0  0  0  0  0  3  0  0  0  0  0  0
   24.4060   12.5220   11.9720 C   0  0  0  0  0  3  0  0  0  0  0  0
   20.4020   12.2110   15.2260 N   0  0  0  0  0  0  0  0  0  0  0  0
   19.0460   12.3580   15.7780 C   0  0  0  0  0  1  0  0  0  0  0  0
   20.6410   10.7940   14.8860 C   0  0  0  0  0  2  0  0  0  0  0  0
   21.5290   10.0530   15.9020 C   0  0  0  0  0  2  0  0  0  0  0  0
   22.9970   10.2730   15.6190 C   0  0  0  0  0  0  0  0  0  0  0  0
   23.6350    9.5710   14.5880 C   0  0  0  0  0  3  0  0  0  0  0  0
   23.7310   11.2030   16.3680 C   0  0  0  0  0  3  0  0  0  0  0  0
   24.9860    9.7920   14.3160 C   0  0  0  0  0  3  0  0  0  0  0  0
   25.0820   11.4210   16.0930 C   0  0  0  0  0  3  0  0  0  0  0  0
   25.7090   10.7140   15.0680 C   0  0  0  0  0  3  0  0  0  0  0  0
  1  2  1  0
  1 20  1  0
  3  5  1  0
  3  2  1  0
  4  2  2  0
  6  7  2  0
  6  3  1  0
  7 12  1  0
  8  7  1  0
  9  8  2  0
 10  6  1  0
 11  9  1  0
 11 10  2  0
 13 10  1  0
 14 16  1  0
 14  1  1  0
 15 14  2  0
 17 19  2  0
 17 15  1  0
 18 16  2  0
 19 18  1  0
 20 21  1  0
 22 20  1  0
 22 23  1  0
 24 23  1  0
 24 26  1  0
 25 24  2  0
 27 25  1  0
 27 29  2  0
 28 26  2  0
 29 28  1  0
M  RAD  8   1   2   8   2   9   2  11   2  12   2  13   2  15   2  16   2
M  RAD  8  17   2  18   2  19   2  21   2  22   3  23   3  25   2  26   2
M  RAD  3  27   2  28   2  29   2
M  END
>  <vina_score>  (1) 
-7.2190000000000003

>  <pose_id>  (1) 
1

$$$$

     RDKit          3D

 29 31  0  0  1  0  0  0  0  0999 V2000
   19.9550   13.3980   13.2210 C   0  0  0  0  0  3  0  0  0  0  0  0
   21.0620   12.3020   13.4070 C   0  0  0  0  0  0  0  0  0  0  0  0
   21.8710   12.5580   14.5050 N   0  0  0  0  0  0  0  0  0  0  0  0
   21.1030   11.2950   12.7040 O   0  0  0  0  0  0  0  0  0  0  0  0
   21.4910   13.3080   15.0760 H   0  0  0  0  0  0  0  0  0  0  0  0
   22.9140   11.7820   15.0540 C   0  0  0  0  0  0  0  0  0  0  0  0
   22.7290   10.7650   16.0150 C   0  0  0  0  0  0  0  0  0  0  0  0
   23.8560   10.0970   16.5320 C   0  0  0  0  0  3  0  0  0  0  0  0
   25.1370   10.3720   16.0670 C   0  0  0  0  0  3  0  0  0  0  0  0
   24.2190   12.0270   14.5500 C   0  0  0  0  0  0  0  0  0  0  0  0
   25.3150   11.3180   15.0690 C   0  0  0  0  0  3  0  0  0  0  0  0
   21.3910   10.2830   16.5060 C   0  0  0  0  0  1  0  0  0  0  0  0
   24.4910   13.0640   13.4890 C   0  0  0  0  0  1  0  0  0  0  0  0
   20.2840   14.4360   12.1510 C   0  0  0  0  0  0  0  0  0  0  0  0
   19.2910   15.0090   11.3380 C   0  0  0  0  0  3  0  0  0  0  0  0
   21.6180   14.8330   11.9500 C   0  0  0  0  0  3  0  0  0  0  0  0
   19.6230   15.9430   10.3540 C   0  0  0  0  0  3  0  0  0  0  0  0
   21.9480   15.7660   10.9650 C   0  0  0  0  0  3  0  0  0  0  0  0
   20.9510   16.3200   10.1670 C   0  0  0  0  0  3  0  0  0  0  0  0
   19.5330   13.9490   14.5590 N   0  0  0  0  0  0  0  0  0  0  0  0
   19.8620   15.3750   14.7110 C   0  0  0  0  0  1  0  0  0  0  0  0
   18.1030   13.7420   14.8640 C   0  0  0  0  0  2  0  0  0  0  0  0
   17.2690   15.0350   14.8380 C   0  0  0  0  0  2  0  0  0  0  0  0
   16.5220   15.1860   13.5340 C   0  0  0  0  0  0  0  0  0  0  0  0
   16.5920   16.3840   12.8100 C   0  0  0  0  0  3  0  0  0  0  0  0
   15.7720   14.1200   13.0170 C   0  0  0  0  0  3  0  0  0  0  0  0
   15.9170   16.5150   11.5950 C   0  0  0  0  0  3  0  0  0  0  0  0
   15.0990   14.2550   11.8030 C   0  0  0  0  0  3  0  0  0  0  0  0
   15.1700   15.4520   11.0930 C   0  0  0  0  0  3  0  0  0  0  0  0
  1  2  1  0
  1 20  1  0
  2  3  1  0
  3  6  1  0
  3  5  1  0
  4  2  2  0
  6  7  2  0
  7 12  1  0
  7  8  1  0
  9  8  2  0
 10  6  1  0
 10 11  2  0
 11  9  1  0
 13 10  1  0
 14  1  1  0
 15 14  2  0
 16 14  1  0
 17 15  1  0
 18 16  2  0
 19 17  2  0
 19 18  1  0
 20 21  1  0
 20 22  1  0
 23 22  1  0
 24 23  1  0
 25 24  2  0
 26 24  1  0
 27 25  1  0
 28 26  2  0
 29 27  2  0
 29 28  1  0
M  RAD  8   1   2   8   2   9   2  11   2  12   2  13   2  15   2  16   2
M  RAD  8  17   2  18   2  19   2  21   2  22   3  23   3  25   2  26   2
M  RAD  3  27   2  28   2  29   2
M  END
>  <vina_score>  (2) 
-6.9580000000000002

>  <pose_id>  (2) 
2

$$$$

     RDKit          3D

 29 31  0  0  1  0  0  0  0  0999 V2000
   17.8440   13.0040   14.0480 C   0  0  0  0  0  3  0  0  0  0  0  0
   19.2230   12.5370   13.4640 C   0  0  0  0  0  0  0  0  0  0  0  0
   20.2840   13.2580   13.9940 N   0  0  0  0  0  0  0  0  0  0  0  0
   19.3160   11.5730   12.7090 O   0  0  0  0  0  0  0  0  0  0  0  0
   19.9860   13.8290   14.7790 H   0  0  0  0  0  0  0  0  0  0  0  0
   21.6710   13.0930   13.7920 C   0  0  0  0  0  0  0  0  0  0  0  0
   22.4660   12.1400   14.4640 C   0  0  0  0  0  0  0  0  0  0  0  0
   23.8540   12.1100   14.2210 C   0  0  0  0  0  3  0  0  0  0  0  0
   24.4430   12.9540   13.2870 C   0  0  0  0  0  3  0  0  0  0  0  0
   22.2710   13.9210   12.8070 C   0  0  0  0  0  0  0  0  0  0  0  0
   23.6540   13.8410   12.5710 C   0  0  0  0  0  3  0  0  0  0  0  0
   21.9350   11.0880   15.4000 C   0  0  0  0  0  1  0  0  0  0  0  0
   21.4800   14.9320   12.0140 C   0  0  0  0  0  1  0  0  0  0  0  0
   16.9880   13.7960   13.0630 C   0  0  0  0  0  0  0  0  0  0  0  0
   15.6090   13.5660   12.9210 C   0  0  0  0  0  3  0  0  0  0  0  0
   17.5840   14.7800   12.2550 C   0  0  0  0  0  3  0  0  0  0  0  0
   14.8540   14.2930   11.9980 C   0  0  0  0  0  3  0  0  0  0  0  0
   16.8270   15.5050   11.3320 C   0  0  0  0  0  3  0  0  0  0  0  0
   15.4640   15.2600   11.2030 C   0  0  0  0  0  3  0  0  0  0  0  0
   18.0360   13.6360   15.4040 N   0  0  0  0  0  0  0  0  0  0  0  0
   17.3450   14.9300   15.5250 C   0  0  0  0  0  1  0  0  0  0  0  0
   17.6420   12.7650   16.5290 C   0  0  0  0  0  2  0  0  0  0  0  0
   18.8330   12.1560   17.2890 C   0  0  0  0  0  2  0  0  0  0  0  0
   18.4680   11.8240   18.7170 C   0  0  0  0  0  0  0  0  0  0  0  0
   17.2060   11.3000   19.0240 C   0  0  0  0  0  3  0  0  0  0  0  0
   19.3980   12.0110   19.7490 C   0  0  0  0  0  3  0  0  0  0  0  0
   16.8780   10.9750   20.3420 C   0  0  0  0  0  3  0  0  0  0  0  0
   19.0670   11.6860   21.0650 C   0  0  0  0  0  3  0  0  0  0  0  0
   17.8070   11.1690   21.3610 C   0  0  0  0  0  3  0  0  0  0  0  0
  1  2  1  0
  1 20  1  0
  2  3  1  0
  3  5  1  0
  4  2  2  0
  6  3  1  0
  6  7  2  0
  7 12  1  0
  8  7  1  0
  9  8  2  0
 10  6  1  0
 11 10  2  0
 11  9  1  0
 13 10  1  0
 14  1  1  0
 15 14  2  0
 16 14  1  0
 17 15  1  0
 18 16  2  0
 19 18  1  0
 19 17  2  0
 20 21  1  0
 20 22  1  0
 22 23  1  0
 23 24  1  0
 24 25  2  0
 24 26  1  0
 25 27  1  0
 26 28  2  0
 27 29  2  0
 28 29  1  0
M  RAD  8   1   2   8   2   9   2  11   2  12   2  13   2  15   2  16   2
M  RAD  8  17   2  18   2  19   2  21   2  22   3  23   3  25   2  26   2
M  RAD  3  27   2  28   2  29   2
M  END
>  <vina_score>  (3) 
-6.7919999999999998

>  <pose_id>  (3) 
3

$$$$

     RDKit          3D

 29 31  0  0  1  0  0  0  0  0999 V2000
   18.8320   13.1770   15.5450 C   0  0  0  0  0  3  0  0  0  0  0  0
   18.3420   14.3620   14.6410 C   0  0  0  0  0  0  0  0  0  0  0  0
   17.9760   13.9340   13.3730 N   0  0  0  0  0  0  0  0  0  0  0  0
   18.2110   15.5020   15.0800 O   0  0  0  0  0  0  0  0  0  0  0  0
   17.9330   12.9200   13.3240 H   0  0  0  0  0  0  0  0  0  0  0  0
   17.4130   14.6660   12.3050 C   0  0  0  0  0  0  0  0  0  0  0  0
   18.1640   15.3660   11.3360 C   0  0  0  0  0  0  0  0  0  0  0  0
   17.4860   16.1100   10.3500 C   0  0  0  0  0  3  0  0  0  0  0  0
   16.0990   16.1150   10.2730 C   0  0  0  0  0  3  0  0  0  0  0  0
   15.9980   14.6380   12.1940 C   0  0  0  0  0  0  0  0  0  0  0  0
   15.3590   15.3690   11.1780 C   0  0  0  0  0  3  0  0  0  0  0  0
   19.6640   15.3380   11.2300 C   0  0  0  0  0  1  0  0  0  0  0  0
   15.1290   13.8750   13.1630 C   0  0  0  0  0  1  0  0  0  0  0  0
   18.9750   11.8500   14.8050 C   0  0  0  0  0  0  0  0  0  0  0  0
   17.8600   11.1030   14.3910 C   0  0  0  0  0  3  0  0  0  0  0  0
   20.2560   11.3380   14.5310 C   0  0  0  0  0  3  0  0  0  0  0  0
   18.0200    9.8820   13.7320 C   0  0  0  0  0  3  0  0  0  0  0  0
   20.4140   10.1160   13.8730 C   0  0  0  0  0  3  0  0  0  0  0  0
   19.2970    9.3890   13.4750 C   0  0  0  0  0  3  0  0  0  0  0  0
   18.0360   13.1300   16.8250 N   0  0  0  0  0  0  0  0  0  0  0  0
   16.5970   12.9340   16.5870 C   0  0  0  0  0  1  0  0  0  0  0  0
   18.5150   12.1180   17.7870 C   0  0  0  0  0  2  0  0  0  0  0  0
   17.3910   11.2680   18.4060 C   0  0  0  0  0  2  0  0  0  0  0  0
   17.4830   11.2390   19.9130 C   0  0  0  0  0  0  0  0  0  0  0  0
   18.6650   11.6270   20.5600 C   0  0  0  0  0  3  0  0  0  0  0  0
   16.3800   10.8500   20.6850 C   0  0  0  0  0  3  0  0  0  0  0  0
   18.7410   11.6190   21.9540 C   0  0  0  0  0  3  0  0  0  0  0  0
   16.4600   10.8430   22.0780 C   0  0  0  0  0  3  0  0  0  0  0  0
   17.6400   11.2260   22.7120 C   0  0  0  0  0  3  0  0  0  0  0  0
  1  2  1  0
  1 20  1  0
  2  4  2  0
  3  2  1  0
  5  3  1  0
  6  3  1  0
  7  6  2  0
  8  7  1  0
  9  8  2  0
  9 11  1  0
 10  6  1  0
 10 13  1  0
 11 10  2  0
 12  7  1  0
 14  1  1  0
 15 14  2  0
 16 14  1  0
 17 15  1  0
 18 16  2  0
 19 17  2  0
 19 18  1  0
 20 22  1  0
 21 20  1  0
 22 23  1  0
 23 24  1  0
 24 25  2  0
 24 26  1  0
 25 27  1  0
 26 28  2  0
 27 29  2  0
 28 29  1  0
M  RAD  8   1   2   8   2   9   2  11   2  12   2  13   2  15   2  16   2
M  RAD  8  17   2  18   2  19   2  21   2  22   3  23   3  25   2  26   2
M  RAD  3  27   2  28   2  29   2
M  END
>  <vina_score>  (4) 
-6.6589999999999998

>  <pose_id>  (4) 
4

$$$$

     RDKit          3D

 29 31  0  0  1  0  0  0  0  0999 V2000
   19.9260   13.1730   13.1470 C   0  0  0  0  0  3  0  0  0  0  0  0
   19.1830   14.1900   14.0810 C   0  0  0  0  0  0  0  0  0  0  0  0
   17.8090   13.9900   14.0830 N   0  0  0  0  0  0  0  0  0  0  0  0
   19.7930   14.9850   14.7910 O   0  0  0  0  0  0  0  0  0  0  0  0
   17.5630   13.1210   13.6170 H   0  0  0  0  0  0  0  0  0  0  0  0
   16.8090   14.6320   14.8430 C   0  0  0  0  0  0  0  0  0  0  0  0
   16.1140   15.7890   14.4290 C   0  0  0  0  0  0  0  0  0  0  0  0
   15.1750   16.3740   15.3020 C   0  0  0  0  0  3  0  0  0  0  0  0
   14.8740   15.8000   16.5320 C   0  0  0  0  0  3  0  0  0  0  0  0
   16.4640   14.0250   16.0800 C   0  0  0  0  0  0  0  0  0  0  0  0
   15.5010   14.6220   16.9100 C   0  0  0  0  0  3  0  0  0  0  0  0
   16.2520   16.4340   13.0770 C   0  0  0  0  0  1  0  0  0  0  0  0
   17.1290   12.7620   16.5700 C   0  0  0  0  0  1  0  0  0  0  0  0
   20.3970   11.9070   13.8580 C   0  0  0  0  0  0  0  0  0  0  0  0
   20.4650   11.8200   15.2590 C   0  0  0  0  0  3  0  0  0  0  0  0
   20.7890   10.7870   13.1040 C   0  0  0  0  0  3  0  0  0  0  0  0
   20.9180   10.6560   15.8830 C   0  0  0  0  0  3  0  0  0  0  0  0
   21.2420    9.6230   13.7290 C   0  0  0  0  0  3  0  0  0  0  0  0
   21.3070    9.5590   15.1180 C   0  0  0  0  0  3  0  0  0  0  0  0
   20.9680   13.8840   12.3200 N   0  0  0  0  0  0  0  0  0  0  0  0
   20.4160   15.0340   11.5860 C   0  0  0  0  0  1  0  0  0  0  0  0
   22.1470   14.3200   13.0950 C   0  0  0  0  0  2  0  0  0  0  0  0
   23.4770   13.7430   12.5790 C   0  0  0  0  0  2  0  0  0  0  0  0
   23.9660   12.6110   13.4520 C   0  0  0  0  0  0  0  0  0  0  0  0
   24.4250   11.4190   12.8760 C   0  0  0  0  0  3  0  0  0  0  0  0
   23.9920   12.7500   14.8460 C   0  0  0  0  0  3  0  0  0  0  0  0
   24.8950   10.3810   13.6840 C   0  0  0  0  0  3  0  0  0  0  0  0
   24.4630   11.7110   15.6500 C   0  0  0  0  0  3  0  0  0  0  0  0
   24.9130   10.5270   15.0690 C   0  0  0  0  0  3  0  0  0  0  0  0
  1 14  1  0
  1  2  1  0
  2  3  1  0
  2  4  2  0
  3  6  1  0
  5  3  1  0
  6 10  1  0
  7  6  2  0
  7  8  1  0
  8  9  2  0
  9 11  1  0
 10 13  1  0
 10 11  2  0
 12  7  1  0
 14 15  2  0
 15 17  1  0
 16 18  2  0
 16 14  1  0
 18 19  1  0
 19 17  2  0
 20 22  1  0
 20  1  1  0
 21 20  1  0
 23 22  1  0
 23 24  1  0
 24 26  1  0
 25 24  2  0
 25 27  1  0
 26 28  2  0
 27 29  2  0
 29 28  1  0
M  RAD  8   1   2   8   2   9   2  11   2  12   2  13   2  15   2  16   2
M  RAD  8  17   2  18   2  19   2  21   2  22   3  23   3  25   2  26   2
M  RAD  3  27   2  28   2  29   2
M  END
>  <vina_score>  (5) 
-6.6529999999999996

>  <pose_id>  (5) 
5

$$$$
