
     RDKit          3D

 23 25  0  0  0  0  0  0  0  0999 V2000
   17.1240   12.0590   17.4880 C   0  0  0  0  0  0  0  0  0  0  0  0
   18.2110   12.4330   16.6910 C   0  0  0  0  0  3  0  0  0  0  0  0
   18.1080   13.5240   15.8220 C   0  0  0  0  0  3  0  0  0  0  0  0
   16.9130   14.2520   15.7370 C   0  0  0  0  0  0  0  0  0  0  0  0
   15.8190   13.8540   16.5180 C   0  0  0  0  0  3  0  0  0  0  0  0
   15.9200   12.7640   17.3890 C   0  0  0  0  0  3  0  0  0  0  0  0
   17.2850   10.8920   18.3970 C   0  0  0  0  0  0  0  0  0  0  0  0
   16.9960    9.7660   18.0080 O   0  0  0  0  0  0  0  0  0  0  0  0
   17.7920   11.1590   19.6530 N   0  0  0  0  0  0  0  0  0  0  0  0
   18.0560   12.1040   19.8920 H   0  0  0  0  0  0  0  0  0  0  0  0
   17.9270   10.1200   20.6670 C   0  0  0  0  0  3  0  0  0  0  0  0
   18.9650   10.5180   21.7230 C   0  0  0  0  0  2  0  0  0  0  0  0
   16.5710    9.8030   21.3160 C   0  0  0  0  0  2  0  0  0  0  0  0
   18.4750   11.6270   22.6550 C   0  0  0  0  0  2  0  0  0  0  0  0
   16.0850   10.9280   22.2290 C   0  0  0  0  0  2  0  0  0  0  0  0
   17.1290   11.2830   23.2850 C   0  0  0  0  0  2  0  0  0  0  0  0
   16.7930   15.4190   14.7760 C   0  0  0  0  0  2  0  0  0  0  0  0
   17.1240   15.0640   13.3880 N   0  0  0  0  0  0  0  0  0  0  0  0
   16.2210   14.0360   12.8230 C   0  0  0  0  0  2  0  0  0  0  0  0
   17.1340   16.2730   12.5380 C   0  0  0  0  0  2  0  0  0  0  0  0
   15.1280   14.6130   11.9110 C   0  0  0  0  0  2  0  0  0  0  0  0
   16.9350   15.9300   11.0550 C   0  0  0  0  0  2  0  0  0  0  0  0
   15.6500   15.3470   10.7950 O   0  0  0  0  0  0  0  0  0  0  0  0
  1  7  1  0
  2  1  1  0
  3  2  2  0
  4  3  1  0
  4  5  2  0
  5  6  1  0
  6  1  2  0
  7  9  1  0
  8  7  2  0
  9 10  1  0
  9 11  1  0
 11 13  1  0
 11 12  1  0
 12 14  1  0
 13 15  1  0
 14 16  1  0
 15 16  1  0
 17  4  1  0
 18 17  1  0
 19 18  1  0
 20 18  1  0
 21 19  1  0
 22 20  1  0
 23 22  1  0
 23 21  1  0
M  RAD  8   2   2   3   2   5   2   6   2  11   2  12   3  13   3  14   3
M  RAD  7  15   3  16   3  17   3  19   3  20   3  21   3  22   3
M  END
>  <vina_score>  (1) 
-7.0460000000000003

>  <pose_id>  (1) 
1

$$$$

     RDKit          3D

 23 25  0  0  0  0  0  0  0  0999 V2000
   20.2360   14.5880   11.9390 C   0  0  0  0  0  0  0  0  0  0  0  0
   20.2920   13.5890   12.9180 C   0  0  0  0  0  3  0  0  0  0  0  0
   21.5200   13.0380   13.2960 C   0  0  0  0  0  3  0  0  0  0  0  0
   22.7090   13.4780   12.6960 C   0  0  0  0  0  0  0  0  0  0  0  0
   22.6420   14.4590   11.6970 C   0  0  0  0  0  3  0  0  0  0  0  0
   21.4150   15.0130   11.3180 C   0  0  0  0  0  3  0  0  0  0  0  0
   18.9040   15.1420   11.5730 C   0  0  0  0  0  0  0  0  0  0  0  0
   18.7990   15.9130   10.6260 O   0  0  0  0  0  0  0  0  0  0  0  0
   17.8340   14.7170   12.3330 N   0  0  0  0  0  0  0  0  0  0  0  0
   17.9830   14.0410   13.0690 H   0  0  0  0  0  0  0  0  0  0  0  0
   16.4870   15.2410   12.1320 C   0  0  0  0  0  3  0  0  0  0  0  0
   15.4320   14.1720   12.4450 C   0  0  0  0  0  2  0  0  0  0  0  0
   16.2580   16.5080   12.9680 C   0  0  0  0  0  2  0  0  0  0  0  0
   15.3000   13.8850   13.9410 C   0  0  0  0  0  2  0  0  0  0  0  0
   16.1460   16.2070   14.4630 C   0  0  0  0  0  2  0  0  0  0  0  0
   15.0710   15.1620   14.7440 C   0  0  0  0  0  2  0  0  0  0  0  0
   24.0380   12.8640   13.0880 C   0  0  0  0  0  2  0  0  0  0  0  0
   23.9590   12.0370   14.3020 N   0  0  0  0  0  0  0  0  0  0  0  0
   24.2170   10.6030   14.0430 C   0  0  0  0  0  2  0  0  0  0  0  0
   24.8810   12.5550   15.3360 C   0  0  0  0  0  2  0  0  0  0  0  0
   25.6420   10.1590   14.4100 C   0  0  0  0  0  2  0  0  0  0  0  0
   25.2440   11.4770   16.3680 C   0  0  0  0  0  2  0  0  0  0  0  0
   25.9690   10.3830   15.7880 O   0  0  0  0  0  0  0  0  0  0  0  0
  1  2  1  0
  2  3  2  0
  4 17  1  0
  4  3  1  0
  5  4  2  0
  6  5  1  0
  6  1  2  0
  7  1  1  0
  7  9  1  0
  8  7  2  0
  9 10  1  0
 11  9  1  0
 11 12  1  0
 11 13  1  0
 12 14  1  0
 13 15  1  0
 14 16  1  0
 15 16  1  0
 17 18  1  0
 18 20  1  0
 19 18  1  0
 19 21  1  0
 20 22  1  0
 21 23  1  0
 23 22  1  0
M  RAD  8   2   2   3   2   5   2   6   2  11   2  12   3  13   3  14   3
M  RAD  7  15   3  16   3  17   3  19   3  20   3  21   3  22   3
M  END
>  <vina_score>  (2) 
-6.859

>  <pose_id>  (2) 
2

$$$$

     RDKit          3D

 23 25  0  0  0  0  0  0  0  0999 V2000
   21.6420   10.2700   17.0190 C   0  0  0  0  0  0  0  0  0  0  0  0
   23.0290   10.4500   17.0420 C   0  0  0  0  0  3  0  0  0  0  0  0
   23.6630   11.1870   16.0360 C   0  0  0  0  0  3  0  0  0  0  0  0
   22.9160   11.7510   14.9930 C   0  0  0  0  0  0  0  0  0  0  0  0
   21.5290   11.5430   14.9620 C   0  0  0  0  0  3  0  0  0  0  0  0
   20.8930   10.8070   15.9670 C   0  0  0  0  0  3  0  0  0  0  0  0
   21.0160    9.4780   18.1130 C   0  0  0  0  0  0  0  0  0  0  0  0
   21.3390    8.3080   18.2860 O   0  0  0  0  0  0  0  0  0  0  0  0
   20.1000   10.1430   18.9030 N   0  0  0  0  0  0  0  0  0  0  0  0
   19.9170   11.1220   18.7360 H   0  0  0  0  0  0  0  0  0  0  0  0
   19.3570    9.4650   19.9590 C   0  0  0  0  0  3  0  0  0  0  0  0
   19.9490    9.7850   21.3370 C   0  0  0  0  0  2  0  0  0  0  0  0
   17.8650    9.8240   19.9000 C   0  0  0  0  0  2  0  0  0  0  0  0
   19.6590   11.2160   21.7930 C   0  0  0  0  0  2  0  0  0  0  0  0
   17.5930   11.2620   20.3410 C   0  0  0  0  0  2  0  0  0  0  0  0
   18.1710   11.5420   21.7250 C   0  0  0  0  0  2  0  0  0  0  0  0
   23.6050   12.5290   13.8900 C   0  0  0  0  0  2  0  0  0  0  0  0
   23.4420   11.9190   12.5610 N   0  0  0  0  0  0  0  0  0  0  0  0
   23.4870   12.9080   11.4610 C   0  0  0  0  0  2  0  0  0  0  0  0
   24.4560   10.8620   12.3540 C   0  0  0  0  0  2  0  0  0  0  0  0
   24.8440   12.9660   10.7410 C   0  0  0  0  0  2  0  0  0  0  0  0
   24.6890   10.5800   10.8630 C   0  0  0  0  0  2  0  0  0  0  0  0
   25.2360   11.7110   10.1690 O   0  0  0  0  0  0  0  0  0  0  0  0
  1  2  1  0
  1  7  1  0
  3  2  2  0
  4  3  1  0
  5  4  2  0
  5  6  1  0
  6  1  2  0
  7  8  2  0
  7  9  1  0
  9 11  1  0
 10  9  1  0
 11 12  1  0
 12 14  1  0
 13 11  1  0
 13 15  1  0
 15 16  1  0
 16 14  1  0
 17  4  1  0
 18 17  1  0
 19 18  1  0
 20 18  1  0
 21 19  1  0
 22 20  1  0
 23 21  1  0
 23 22  1  0
M  RAD  8   2   2   3   2   5   2   6   2  11   2  12   3  13   3  14   3
M  RAD  7  15   3  16   3  17   3  19   3  20   3  21   3  22   3
M  END
>  <vina_score>  (3) 
-6.6710000000000003

>  <pose_id>  (3) 
3

$$$$

     RDKit          3D

 23 25  0  0  0  0  0  0  0  0999 V2000
   20.4700   14.6320   11.9310 C   0  0  0  0  0  0  0  0  0  0  0  0
   19.6790   15.4000   11.0680 C   0  0  0  0  0  3  0  0  0  0  0  0
   18.2890   15.4220   11.2160 C   0  0  0  0  0  3  0  0  0  0  0  0
   17.6710   14.6720   12.2270 C   0  0  0  0  0  0  0  0  0  0  0  0
   18.4680   13.8830   13.0700 C   0  0  0  0  0  3  0  0  0  0  0  0
   19.8590   13.8610   12.9250 C   0  0  0  0  0  3  0  0  0  0  0  0
   21.9450   14.6440   11.7320 C   0  0  0  0  0  0  0  0  0  0  0  0
   22.4640   15.5090   11.0360 O   0  0  0  0  0  0  0  0  0  0  0  0
   22.6580   13.6620   12.3890 N   0  0  0  0  0  0  0  0  0  0  0  0
   22.1720   13.0090   12.9880 H   0  0  0  0  0  0  0  0  0  0  0  0
   24.0990   13.5110   12.2190 C   0  0  0  0  0  3  0  0  0  0  0  0
   24.7460   12.9650   13.4980 C   0  0  0  0  0  2  0  0  0  0  0  0
   24.4210   12.6190   11.0110 C   0  0  0  0  0  2  0  0  0  0  0  0
   24.4300   11.4890   13.7430 C   0  0  0  0  0  2  0  0  0  0  0  0
   24.0840   11.1500   11.2640 C   0  0  0  0  0  2  0  0  0  0  0  0
   24.7630   10.6290   12.5270 C   0  0  0  0  0  2  0  0  0  0  0  0
   16.1620   14.6770   12.3720 C   0  0  0  0  0  2  0  0  0  0  0  0
   15.6980   15.3690   13.5840 N   0  0  0  0  0  0  0  0  0  0  0  0
   15.1800   14.4430   14.6150 C   0  0  0  0  0  2  0  0  0  0  0  0
   16.7780   16.2140   14.1370 C   0  0  0  0  0  2  0  0  0  0  0  0
   16.1840   14.1540   15.7420 C   0  0  0  0  0  2  0  0  0  0  0  0
   16.5610   16.5150   15.6260 C   0  0  0  0  0  2  0  0  0  0  0  0
   16.6100   15.3330   16.4380 O   0  0  0  0  0  0  0  0  0  0  0  0
  1  6  2  0
  2  3  2  0
  2  1  1  0
  3  4  1  0
  4 17  1  0
  4  5  2  0
  6  5  1  0
  7  1  1  0
  7  9  1  0
  8  7  2  0
  9 10  1  0
 11  9  1  0
 11 12  1  0
 12 14  1  0
 13 15  1  0
 13 11  1  0
 15 16  1  0
 16 14  1  0
 17 18  1  0
 18 20  1  0
 18 19  1  0
 19 21  1  0
 20 22  1  0
 21 23  1  0
 22 23  1  0
M  RAD  8   2   2   3   2   5   2   6   2  11   2  12   3  13   3  14   3
M  RAD  7  15   3  16   3  17   3  19   3  20   3  21   3  22   3
M  END
>  <vina_score>  (4) 
-6.4809999999999999

>  <pose_id>  (4) 
4

$$$$

     RDKit          3D

 23 25  0  0  0  0  0  0  0  0999 V2000
   20.3600   14.2490   12.4130 C   0  0  0  0  0  0  0  0  0  0  0  0
   21.5390   14.9180   12.0650 C   0  0  0  0  0  3  0  0  0  0  0  0
   22.7750   14.4610   12.5320 C   0  0  0  0  0  3  0  0  0  0  0  0
   22.8470   13.3300   13.3570 C   0  0  0  0  0  0  0  0  0  0  0  0
   21.6600   12.6810   13.7250 C   0  0  0  0  0  3  0  0  0  0  0  0
   20.4220   13.1350   13.2580 C   0  0  0  0  0  3  0  0  0  0  0  0
   19.0700   14.7740   11.8890 C   0  0  0  0  0  0  0  0  0  0  0  0
   19.0320   15.3320   10.7980 O   0  0  0  0  0  0  0  0  0  0  0  0
   17.9590   14.5690   12.6810 N   0  0  0  0  0  0  0  0  0  0  0  0
   18.0530   14.0570   13.5470 H   0  0  0  0  0  0  0  0  0  0  0  0
   16.6480   15.1000   12.3240 C   0  0  0  0  0  3  0  0  0  0  0  0
   15.5400   14.0930   12.6570 C   0  0  0  0  0  2  0  0  0  0  0  0
   16.3940   16.4500   13.0110 C   0  0  0  0  0  2  0  0  0  0  0  0
   15.2860   13.9600   14.1590 C   0  0  0  0  0  2  0  0  0  0  0  0
   16.1600   16.3030   14.5140 C   0  0  0  0  0  2  0  0  0  0  0  0
   15.0360   15.3160   14.8120 C   0  0  0  0  0  2  0  0  0  0  0  0
   24.1850   12.8500   13.8840 C   0  0  0  0  0  2  0  0  0  0  0  0
   24.7870   11.7920   13.0580 N   0  0  0  0  0  0  0  0  0  0  0  0
   24.6100   10.4390   13.6320 C   0  0  0  0  0  2  0  0  0  0  0  0
   24.2510   11.8490   11.6810 C   0  0  0  0  0  2  0  0  0  0  0  0
   23.4720    9.6390   12.9800 C   0  0  0  0  0  2  0  0  0  0  0  0
   24.4050   10.5060   10.9530 C   0  0  0  0  0  2  0  0  0  0  0  0
   23.6430    9.4570   11.5680 O   0  0  0  0  0  0  0  0  0  0  0  0
  1  6  2  0
  2  1  1  0
  2  3  2  0
  3  4  1  0
  4  5  2  0
  4 17  1  0
  6  5  1  0
  7  1  1  0
  7  9  1  0
  8  7  2  0
  9 10  1  0
 11 12  1  0
 11  9  1  0
 11 13  1  0
 12 14  1  0
 13 15  1  0
 14 16  1  0
 15 16  1  0
 18 19  1  0
 18 17  1  0
 20 18  1  0
 21 19  1  0
 22 23  1  0
 22 20  1  0
 23 21  1  0
M  RAD  8   2   2   3   2   5   2   6   2  11   2  12   3  13   3  14   3
M  RAD  7  15   3  16   3  17   3  19   3  20   3  21   3  22   3
M  END
>  <vina_score>  (5) 
-6.4329999999999998

>  <pose_id>  (5) 
5

$$$$
