
     RDKit          3D

 24 26  0  0  0  0  0  0  0  0999 V2000
   19.5270   13.3220   12.4570 O   0  0  0  0  0  0  0  0  0  0  0  0
   19.5540   14.5380   12.2950 C   0  0  0  0  0  0  0  0  0  0  0  0
   20.5340   15.3500   12.8140 N   0  0  0  0  0  0  0  0  0  0  0  0
   20.6250   16.2890   12.4470 H   0  0  0  0  0  0  0  0  0  0  0  0
   18.5330   15.1960   11.4320 C   0  0  0  0  0  0  0  0  0  0  0  0
   19.0020   15.6720   10.1920 C   0  0  0  0  0  3  0  0  0  0  0  0
   17.1750   15.3560   11.7890 C   0  0  0  0  0  0  0  0  0  0  0  0
   18.1450   16.3310    9.3130 C   0  0  0  0  0  3  0  0  0  0  0  0
   16.3340   16.0300   10.8790 C   0  0  0  0  0  3  0  0  0  0  0  0
   16.8120   16.5150    9.6580 C   0  0  0  0  0  3  0  0  0  0  0  0
   16.5810   14.8230   13.0270 C   0  0  0  0  0  0  0  0  0  0  0  0
   16.5420   15.5920   14.2010 C   0  0  0  0  0  3  0  0  0  0  0  0
   16.0470   13.5230   13.0650 C   0  0  0  0  0  3  0  0  0  0  0  0
   15.9780   15.0830   15.3740 C   0  0  0  0  0  3  0  0  0  0  0  0
   15.4840   13.0140   14.2380 C   0  0  0  0  0  3  0  0  0  0  0  0
   15.4490   13.7950   15.3900 C   0  0  0  0  0  3  0  0  0  0  0  0
   21.7080   14.8080   13.4690 C   0  0  0  0  0  2  0  0  0  0  0  0
   22.9210   14.7770   12.5190 C   0  0  0  0  0  2  0  0  0  0  0  0
   22.9010   13.6210   11.5990 N   0  0  0  0  0  0  0  0  0  0  0  0
   23.3390   12.3950   12.3010 C   0  0  0  0  0  2  0  0  0  0  0  0
   23.7030   13.8340   10.3740 C   0  0  0  0  0  2  0  0  0  0  0  0
   23.7730   11.3030   11.3140 C   0  0  0  0  0  2  0  0  0  0  0  0
   25.0530   13.0970   10.3810 C   0  0  0  0  0  2  0  0  0  0  0  0
   24.9190   11.6780   10.5370 O   0  0  0  0  0  0  0  0  0  0  0  0
  2  1  2  0
  2  3  1  0
  3 17  1  0
  4  3  1  0
  5  7  1  0
  5  2  1  0
  6  5  2  0
  7 11  1  0
  8 10  2  0
  8  6  1  0
  9  7  2  0
 10  9  1  0
 11 13  1  0
 11 12  2  0
 12 14  1  0
 13 15  2  0
 14 16  2  0
 15 16  1  0
 18 17  1  0
 19 20  1  0
 19 18  1  0
 21 23  1  0
 21 19  1  0
 22 20  1  0
 23 24  1  0
 24 22  1  0
M  RAD  8   6   2   8   2   9   2  10   2  12   2  13   2  14   2  15   2
M  RAD  7  16   2  17   3  18   3  20   3  21   3  22   3  23   3
M  END
>  <vina_score>  (1) 
-7.4379999999999997

>  <pose_id>  (1) 
1

$$$$

     RDKit          3D

 24 26  0  0  0  0  0  0  0  0999 V2000
   19.5270   13.3720   12.5050 O   0  0  0  0  0  0  0  0  0  0  0  0
   19.5360   14.5740   12.2530 C   0  0  0  0  0  0  0  0  0  0  0  0
   20.5430   15.4230   12.6440 N   0  0  0  0  0  0  0  0  0  0  0  0
   20.6040   16.3330   12.2050 H   0  0  0  0  0  0  0  0  0  0  0  0
   18.4560   15.1650   11.4130 C   0  0  0  0  0  0  0  0  0  0  0  0
   18.8680   15.6840   10.1710 C   0  0  0  0  0  3  0  0  0  0  0  0
   17.0970   15.2260   11.7950 C   0  0  0  0  0  0  0  0  0  0  0  0
   17.9520   16.2890    9.3130 C   0  0  0  0  0  3  0  0  0  0  0  0
   16.1940   15.8460   10.9060 C   0  0  0  0  0  3  0  0  0  0  0  0
   16.6150   16.3750    9.6820 C   0  0  0  0  0  3  0  0  0  0  0  0
   16.5640   14.6410   13.0370 C   0  0  0  0  0  0  0  0  0  0  0  0
   16.6290   15.3400   14.2530 C   0  0  0  0  0  3  0  0  0  0  0  0
   15.9840   13.3600   13.0370 C   0  0  0  0  0  3  0  0  0  0  0  0
   16.1220   14.7820   15.4300 C   0  0  0  0  0  3  0  0  0  0  0  0
   15.4780   12.8020   14.2140 C   0  0  0  0  0  3  0  0  0  0  0  0
   15.5470   13.5140   15.4080 C   0  0  0  0  0  3  0  0  0  0  0  0
   21.7610   14.9320   13.2580 C   0  0  0  0  0  2  0  0  0  0  0  0
   22.9100   14.8370   12.2350 C   0  0  0  0  0  2  0  0  0  0  0  0
   23.7160   13.6080   12.3890 N   0  0  0  0  0  0  0  0  0  0  0  0
   23.9440   12.9730   11.0720 C   0  0  0  0  0  2  0  0  0  0  0  0
   23.1290   12.6380   13.3390 C   0  0  0  0  0  2  0  0  0  0  0  0
   24.3550   11.5020   11.2180 C   0  0  0  0  0  2  0  0  0  0  0  0
   22.4450   11.4400   12.6590 C   0  0  0  0  0  2  0  0  0  0  0  0
   23.3290   10.6940   11.8110 O   0  0  0  0  0  0  0  0  0  0  0  0
  2  1  2  0
  2  3  1  0
  3 17  1  0
  4  3  1  0
  5  7  1  0
  5  2  1  0
  6  5  2  0
  7 11  1  0
  8 10  2  0
  8  6  1  0
  9  7  2  0
 10  9  1  0
 11 12  2  0
 12 14  1  0
 13 11  1  0
 13 15  2  0
 15 16  1  0
 16 14  2  0
 18 19  1  0
 18 17  1  0
 19 21  1  0
 20 22  1  0
 20 19  1  0
 22 24  1  0
 23 21  1  0
 24 23  1  0
M  RAD  8   6   2   8   2   9   2  10   2  12   2  13   2  14   2  15   2
M  RAD  7  16   2  17   3  18   3  20   3  21   3  22   3  23   3
M  END
>  <vina_score>  (2) 
-7.2960000000000003

>  <pose_id>  (2) 
2

$$$$

     RDKit          3D

 24 26  0  0  0  0  0  0  0  0999 V2000
   19.1500   13.5900   12.3210 O   0  0  0  0  0  0  0  0  0  0  0  0
   19.8730   14.5710   12.4710 C   0  0  0  0  0  0  0  0  0  0  0  0
   19.8190   15.3890   13.5740 N   0  0  0  0  0  0  0  0  0  0  0  0
   20.5900   16.0240   13.7400 H   0  0  0  0  0  0  0  0  0  0  0  0
   20.9300   14.8760   11.4650 C   0  0  0  0  0  0  0  0  0  0  0  0
   20.5970   15.8600   10.5150 C   0  0  0  0  0  3  0  0  0  0  0  0
   22.1940   14.2470   11.4260 C   0  0  0  0  0  0  0  0  0  0  0  0
   21.4940   16.2090    9.5080 C   0  0  0  0  0  3  0  0  0  0  0  0
   23.0790   14.6190   10.3930 C   0  0  0  0  0  3  0  0  0  0  0  0
   22.7340   15.5850    9.4430 C   0  0  0  0  0  3  0  0  0  0  0  0
   22.6560   13.2650   12.4230 C   0  0  0  0  0  0  0  0  0  0  0  0
   22.2520   11.9220   12.3580 C   0  0  0  0  0  3  0  0  0  0  0  0
   23.5070   13.6540   13.4720 C   0  0  0  0  0  3  0  0  0  0  0  0
   22.6920   10.9940   13.3050 C   0  0  0  0  0  3  0  0  0  0  0  0
   23.9470   12.7250   14.4190 C   0  0  0  0  0  3  0  0  0  0  0  0
   23.5400   11.3970   14.3340 C   0  0  0  0  0  3  0  0  0  0  0  0
   19.0030   15.0660   14.7270 C   0  0  0  0  0  2  0  0  0  0  0  0
   17.9590   16.1650   15.0050 C   0  0  0  0  0  2  0  0  0  0  0  0
   16.6030   15.8000   14.5440 N   0  0  0  0  0  0  0  0  0  0  0  0
   16.4800   14.3310   14.4190 C   0  0  0  0  0  2  0  0  0  0  0  0
   16.2170   16.4640   13.2800 C   0  0  0  0  0  2  0  0  0  0  0  0
   15.2940   13.9380   13.5270 C   0  0  0  0  0  2  0  0  0  0  0  0
   16.2810   15.5420   12.0510 C   0  0  0  0  0  2  0  0  0  0  0  0
   15.4460   14.3830   12.1720 O   0  0  0  0  0  0  0  0  0  0  0  0
  1  2  2  0
  2  3  1  0
  3  4  1  0
  3 17  1  0
  5  2  1  0
  6  5  2  0
  7  5  1  0
  7 11  1  0
  8  6  1  0
  9  7  2  0
 10  8  2  0
 10  9  1  0
 11 13  1  0
 12 11  2  0
 12 14  1  0
 13 15  2  0
 14 16  2  0
 16 15  1  0
 17 18  1  0
 19 18  1  0
 20 19  1  0
 21 19  1  0
 22 20  1  0
 23 24  1  0
 23 21  1  0
 24 22  1  0
M  RAD  8   6   2   8   2   9   2  10   2  12   2  13   2  14   2  15   2
M  RAD  7  16   2  17   3  18   3  20   3  21   3  22   3  23   3
M  END
>  <vina_score>  (3) 
-7.0209999999999999

>  <pose_id>  (3) 
3

$$$$

     RDKit          3D

 24 26  0  0  0  0  0  0  0  0999 V2000
   20.4860   15.0280   13.6740 O   0  0  0  0  0  0  0  0  0  0  0  0
   20.0170   14.3780   12.7450 C   0  0  0  0  0  0  0  0  0  0  0  0
   19.9800   13.0040   12.7240 N   0  0  0  0  0  0  0  0  0  0  0  0
   19.3750   12.5490   12.0520 H   0  0  0  0  0  0  0  0  0  0  0  0
   19.3730   15.0780   11.5980 C   0  0  0  0  0  0  0  0  0  0  0  0
   20.2140   15.3440   10.5000 C   0  0  0  0  0  3  0  0  0  0  0  0
   18.0160   15.4710   11.5670 C   0  0  0  0  0  0  0  0  0  0  0  0
   19.7310   16.0200    9.3820 C   0  0  0  0  0  3  0  0  0  0  0  0
   17.5580   16.1560   10.4230 C   0  0  0  0  0  3  0  0  0  0  0  0
   18.4050   16.4310    9.3440 C   0  0  0  0  0  3  0  0  0  0  0  0
   17.0470   15.1670   12.6340 C   0  0  0  0  0  0  0  0  0  0  0  0
   16.7380   16.1140   13.6230 C   0  0  0  0  0  3  0  0  0  0  0  0
   16.4140   13.9130   12.6930 C   0  0  0  0  0  3  0  0  0  0  0  0
   15.8180   15.8230   14.6340 C   0  0  0  0  0  3  0  0  0  0  0  0
   15.4950   13.6210   13.7050 C   0  0  0  0  0  3  0  0  0  0  0  0
   15.1980   14.5770   14.6730 C   0  0  0  0  0  3  0  0  0  0  0  0
   20.3560   12.2120   13.8780 C   0  0  0  0  0  2  0  0  0  0  0  0
   21.1600   10.9630   13.4680 C   0  0  0  0  0  2  0  0  0  0  0  0
   22.6220   11.1770   13.5250 N   0  0  0  0  0  0  0  0  0  0  0  0
   22.9560   12.1750   14.5640 C   0  0  0  0  0  2  0  0  0  0  0  0
   23.2070   11.5650   12.2220 C   0  0  0  0  0  2  0  0  0  0  0  0
   24.3580   12.7620   14.3510 C   0  0  0  0  0  2  0  0  0  0  0  0
   23.5520   13.0600   12.1180 C   0  0  0  0  0  2  0  0  0  0  0  0
   24.4750   13.4960   13.1250 O   0  0  0  0  0  0  0  0  0  0  0  0
  2  1  2  0
  3  2  1  0
  3 17  1  0
  4  3  1  0
  5  2  1  0
  6  5  2  0
  7  5  1  0
  7 11  1  0
  8  6  1  0
  9  7  2  0
 10  8  2  0
 10  9  1  0
 11 13  1  0
 11 12  2  0
 12 14  1  0
 13 15  2  0
 14 16  2  0
 15 16  1  0
 18 19  1  0
 18 17  1  0
 19 20  1  0
 21 19  1  0
 22 20  1  0
 23 21  1  0
 23 24  1  0
 24 22  1  0
M  RAD  8   6   2   8   2   9   2  10   2  12   2  13   2  14   2  15   2
M  RAD  7  16   2  17   3  18   3  20   3  21   3  22   3  23   3
M  END
>  <vina_score>  (4) 
-6.8140000000000001

>  <pose_id>  (4) 
4

$$$$

     RDKit          3D

 24 26  0  0  0  0  0  0  0  0999 V2000
   17.4790   12.3190   13.0620 O   0  0  0  0  0  0  0  0  0  0  0  0
   18.0310   13.2480   13.6430 C   0  0  0  0  0  0  0  0  0  0  0  0
   19.3950   13.3710   13.7530 N   0  0  0  0  0  0  0  0  0  0  0  0
   19.7780   14.2660   14.0300 H   0  0  0  0  0  0  0  0  0  0  0  0
   17.2160   14.3630   14.2040 C   0  0  0  0  0  0  0  0  0  0  0  0
   16.9100   14.2610   15.5750 C   0  0  0  0  0  3  0  0  0  0  0  0
   16.7560   15.4670   13.4520 C   0  0  0  0  0  0  0  0  0  0  0  0
   16.1290   15.2290   16.2040 C   0  0  0  0  0  3  0  0  0  0  0  0
   15.9650   16.4280   14.1160 C   0  0  0  0  0  3  0  0  0  0  0  0
   15.6520   16.3100   15.4740 C   0  0  0  0  0  3  0  0  0  0  0  0
   17.0900   15.6950   12.0360 C   0  0  0  0  0  0  0  0  0  0  0  0
   16.0850   15.9000   11.0780 C   0  0  0  0  0  3  0  0  0  0  0  0
   18.4290   15.7030   11.6070 C   0  0  0  0  0  3  0  0  0  0  0  0
   16.4060   16.1150    9.7350 C   0  0  0  0  0  3  0  0  0  0  0  0
   18.7500   15.9180   10.2640 C   0  0  0  0  0  3  0  0  0  0  0  0
   17.7380   16.1250    9.3300 C   0  0  0  0  0  3  0  0  0  0  0  0
   20.3010   12.4830   13.0500 C   0  0  0  0  0  2  0  0  0  0  0  0
   21.5180   12.1150   13.9200 C   0  0  0  0  0  2  0  0  0  0  0  0
   22.7860   12.6670   13.3970 N   0  0  0  0  0  0  0  0  0  0  0  0
   22.6830   12.9060   11.9410 C   0  0  0  0  0  2  0  0  0  0  0  0
   23.9620   11.8230   13.7040 C   0  0  0  0  0  2  0  0  0  0  0  0
   24.0670   13.0270   11.2890 C   0  0  0  0  0  2  0  0  0  0  0  0
   24.4680   11.0060   12.5040 C   0  0  0  0  0  2  0  0  0  0  0  0
   24.8340   11.8190   11.3820 O   0  0  0  0  0  0  0  0  0  0  0  0
  1  2  2  0
  2  3  1  0
  2  5  1  0
  3  4  1  0
  5  6  2  0
  6  8  1  0
  7  9  2  0
  7  5  1  0
  9 10  1  0
 10  8  2  0
 11  7  1  0
 12 11  2  0
 13 11  1  0
 14 12  1  0
 15 13  2  0
 16 14  2  0
 16 15  1  0
 17  3  1  0
 17 18  1  0
 19 21  1  0
 19 18  1  0
 20 19  1  0
 22 24  1  0
 22 20  1  0
 23 21  1  0
 24 23  1  0
M  RAD  8   6   2   8   2   9   2  10   2  12   2  13   2  14   2  15   2
M  RAD  7  16   2  17   3  18   3  20   3  21   3  22   3  23   3
M  END
>  <vina_score>  (5) 
-6.625

>  <pose_id>  (5) 
5

$$$$
