
     RDKit          3D

 19 20  0  0  1  0  0  0  0  0999 V2000
   19.1870   10.4730   18.8230 N   0  0  0  0  0  0  0  0  0  0  0  0
   19.9450    9.8350   17.8450 C   0  0  0  0  0  3  0  0  0  0  0  0
   20.0660    8.5210   17.6560 C   0  0  0  0  0  3  0  0  0  0  0  0
   19.3610    7.6070   18.5690 C   0  0  0  0  0  0  0  0  0  0  0  0
   19.3910    6.3950   18.3440 O   0  0  0  0  0  0  0  0  0  0  0  0
   18.7130    8.1610   19.8260 C   0  0  0  0  0  0  0  0  0  0  0  0
   18.2520    9.6330   19.6330 C   0  0  0  0  0  0  0  0  0  0  0  0
   18.7370   11.8640   18.5830 C   0  0  0  0  0  2  0  0  0  0  0  0
   17.6130   11.8820   17.5870 C   0  0  0  0  0  3  0  0  0  0  0  0
   16.3160   12.0110   17.8980 C   0  0  0  0  0  2  0  0  0  0  0  0
   17.7990   10.2610   20.9500 C   0  0  0  0  0  0  0  0  0  0  0  0
   18.7760   10.9690   21.6910 C   0  0  0  0  0  3  0  0  0  0  0  0
   16.4920   10.2160   21.4740 C   0  0  0  0  0  0  0  0  0  0  0  0
   18.4680   11.5940   22.9010 C   0  0  0  0  0  3  0  0  0  0  0  0
   16.1920   10.8480   22.6910 C   0  0  0  0  0  3  0  0  0  0  0  0
   17.1750   11.5330   23.4020 C   0  0  0  0  0  3  0  0  0  0  0  0
   15.0380    9.3180   20.6410 Br  0  0  0  0  0  0  0  0  0  0  0  0
   19.6150    7.9300   20.9110 O   0  0  0  0  0  0  0  0  0  0  0  0
   19.7170    6.9640   20.9880 H   0  0  0  0  0  0  0  0  0  0  0  0
  1  7  1  0
  2  1  1  0
  3  2  2  0
  3  4  1  0
  4  6  1  0
  5  4  2  0
  6 18  1  0
  7  6  1  0
  7 11  1  0
  8  1  1  0
  9 10  2  0
  9  8  1  0
 11 13  1  0
 11 12  2  0
 12 14  1  0
 13 15  2  0
 14 16  2  0
 15 16  1  0
 17 13  1  0
 18 19  1  0
M  RAD  8   2   2   3   2   8   3   9   2  10   3  12   2  14   2  15   2
M  RAD  1  16   2
M  END
>  <vina_score>  (1) 
-5.718

>  <pose_id>  (1) 
1

$$$$

     RDKit          3D

 19 20  0  0  1  0  0  0  0  0999 V2000
   18.9390   10.9390   21.1300 N   0  0  0  0  0  0  0  0  0  0  0  0
   20.3220   10.7850   21.0800 C   0  0  0  0  0  3  0  0  0  0  0  0
   21.0240   10.1550   20.1380 C   0  0  0  0  0  3  0  0  0  0  0  0
   20.3030    9.5170   19.0260 C   0  0  0  0  0  0  0  0  0  0  0  0
   20.9480    9.0160   18.1020 O   0  0  0  0  0  0  0  0  0  0  0  0
   18.7900    9.3880   19.0930 C   0  0  0  0  0  0  0  0  0  0  0  0
   18.1530   10.5380   19.9230 C   0  0  0  0  0  0  0  0  0  0  0  0
   18.3740   12.0690   21.9030 C   0  0  0  0  0  2  0  0  0  0  0  0
   18.1010   11.6450   23.3180 C   0  0  0  0  0  3  0  0  0  0  0  0
   17.0050   11.9690   24.0170 C   0  0  0  0  0  2  0  0  0  0  0  0
   16.6660   10.2950   20.1750 C   0  0  0  0  0  0  0  0  0  0  0  0
   16.3310    9.4010   21.2200 C   0  0  0  0  0  3  0  0  0  0  0  0
   15.6050   10.9040   19.4750 C   0  0  0  0  0  0  0  0  0  0  0  0
   15.0030    9.1180   21.5450 C   0  0  0  0  0  3  0  0  0  0  0  0
   14.2740   10.6140   19.8100 C   0  0  0  0  0  3  0  0  0  0  0  0
   13.9730    9.7240   20.8400 C   0  0  0  0  0  3  0  0  0  0  0  0
   15.8370   12.1290   18.0390 Br  0  0  0  0  0  0  0  0  0  0  0  0
   18.4930    8.0620   19.5380 O   0  0  0  0  0  0  0  0  0  0  0  0
   18.7360    8.0230   20.4810 H   0  0  0  0  0  0  0  0  0  0  0  0
  1  8  1  0
  2  1  1  0
  3  2  2  0
  4  6  1  0
  4  3  1  0
  5  4  2  0
  6 18  1  0
  6  7  1  0
  7 11  1  0
  7  1  1  0
  8  9  1  0
  9 10  2  0
 11 12  2  0
 12 14  1  0
 13 15  2  0
 13 11  1  0
 15 16  1  0
 16 14  2  0
 17 13  1  0
 18 19  1  0
M  RAD  8   2   2   3   2   8   3   9   2  10   3  12   2  14   2  15   2
M  RAD  1  16   2
M  END
>  <vina_score>  (2) 
-5.633

>  <pose_id>  (2) 
2

$$$$

     RDKit          3D

 19 20  0  0  1  0  0  0  0  0999 V2000
   17.1000   13.4160   14.3290 N   0  0  0  0  0  0  0  0  0  0  0  0
   16.6380   13.2220   15.6280 C   0  0  0  0  0  3  0  0  0  0  0  0
   16.1420   14.1490   16.4470 C   0  0  0  0  0  3  0  0  0  0  0  0
   16.0800   15.5430   15.9830 C   0  0  0  0  0  0  0  0  0  0  0  0
   15.5360   16.3890   16.6980 O   0  0  0  0  0  0  0  0  0  0  0  0
   16.7830   15.9340   14.6950 C   0  0  0  0  0  0  0  0  0  0  0  0
   16.8480   14.7450   13.6950 C   0  0  0  0  0  0  0  0  0  0  0  0
   17.1110   12.2640   13.3960 C   0  0  0  0  0  2  0  0  0  0  0  0
   18.1120   11.2400   13.8500 C   0  0  0  0  0  3  0  0  0  0  0  0
   19.4380   11.3340   13.6770 C   0  0  0  0  0  2  0  0  0  0  0  0
   17.7380   15.0650   12.4940 C   0  0  0  0  0  0  0  0  0  0  0  0
   19.1230   14.8100   12.6380 C   0  0  0  0  0  3  0  0  0  0  0  0
   17.2940   15.5650   11.2540 C   0  0  0  0  0  0  0  0  0  0  0  0
   20.0250   15.0520   11.6000 C   0  0  0  0  0  3  0  0  0  0  0  0
   18.2080   15.8040   10.2160 C   0  0  0  0  0  3  0  0  0  0  0  0
   19.5670   15.5500   10.3880 C   0  0  0  0  0  3  0  0  0  0  0  0
   15.4810   15.9760   10.8550 Br  0  0  0  0  0  0  0  0  0  0  0  0
   18.0410   16.5150   15.0510 O   0  0  0  0  0  0  0  0  0  0  0  0
   18.6330   15.7760   15.2810 H   0  0  0  0  0  0  0  0  0  0  0  0
  1  2  1  0
  2  3  2  0
  4  3  1  0
  4  5  2  0
  6 18  1  0
  6  4  1  0
  7 11  1  0
  7  1  1  0
  7  6  1  0
  8  9  1  0
  8  1  1  0
 10  9  2  0
 11 12  2  0
 13 11  1  0
 14 12  1  0
 15 16  1  0
 15 13  2  0
 16 14  2  0
 17 13  1  0
 18 19  1  0
M  RAD  8   2   2   3   2   8   3   9   2  10   3  12   2  14   2  15   2
M  RAD  1  16   2
M  END
>  <vina_score>  (3) 
-5.6200000000000001

>  <pose_id>  (3) 
3

$$$$

     RDKit          3D

 19 20  0  0  1  0  0  0  0  0999 V2000
   17.5760   15.9830   12.1810 N   0  0  0  0  0  0  0  0  0  0  0  0
   18.5010   16.1770   11.1590 C   0  0  0  0  0  3  0  0  0  0  0  0
   19.6980   15.6030   11.0430 C   0  0  0  0  0  3  0  0  0  0  0  0
   20.1440   14.6780   12.0960 C   0  0  0  0  0  0  0  0  0  0  0  0
   21.2070   14.0700   11.9490 O   0  0  0  0  0  0  0  0  0  0  0  0
   19.3490   14.5760   13.3870 C   0  0  0  0  0  0  0  0  0  0  0  0
   17.8420   14.8830   13.1570 C   0  0  0  0  0  0  0  0  0  0  0  0
   16.1440   16.2530   11.9100 C   0  0  0  0  0  2  0  0  0  0  0  0
   15.5020   15.0530   11.2750 C   0  0  0  0  0  3  0  0  0  0  0  0
   14.7220   14.1720   11.9160 C   0  0  0  0  0  2  0  0  0  0  0  0
   17.0810   14.9950   14.4780 C   0  0  0  0  0  0  0  0  0  0  0  0
   16.9050   16.2950   15.0070 C   0  0  0  0  0  3  0  0  0  0  0  0
   16.5200   13.9200   15.1950 C   0  0  0  0  0  0  0  0  0  0  0  0
   16.2130   16.5150   16.1990 C   0  0  0  0  0  3  0  0  0  0  0  0
   15.8250   14.1500   16.3920 C   0  0  0  0  0  3  0  0  0  0  0  0
   15.6730   15.4410   16.8940 C   0  0  0  0  0  3  0  0  0  0  0  0
   16.6440   12.0990   14.6610 Br  0  0  0  0  0  0  0  0  0  0  0  0
   20.0070   15.3910   14.3610 O   0  0  0  0  0  0  0  0  0  0  0  0
   20.7040   15.8810   13.8890 H   0  0  0  0  0  0  0  0  0  0  0  0
  1  7  1  0
  2  1  1  0
  3  2  2  0
  3  4  1  0
  4  6  1  0
  5  4  2  0
  6 18  1  0
  7  6  1  0
  7 11  1  0
  8  1  1  0
  9  8  1  0
  9 10  2  0
 11 12  2  0
 11 13  1  0
 12 14  1  0
 13 15  2  0
 14 16  2  0
 15 16  1  0
 17 13  1  0
 19 18  1  0
M  RAD  8   2   2   3   2   8   3   9   2  10   3  12   2  14   2  15   2
M  RAD  1  16   2
M  END
>  <vina_score>  (4) 
-5.468

>  <pose_id>  (4) 
4

$$$$

     RDKit          3D

 19 20  0  0  1  0  0  0  0  0999 V2000
   24.1430    9.9580   16.4600 N   0  0  0  0  0  0  0  0  0  0  0  0
   25.3930    9.7120   15.8980 C   0  0  0  0  0  3  0  0  0  0  0  0
   26.1010    8.5860   15.9850 C   0  0  0  0  0  3  0  0  0  0  0  0
   25.5570    7.4660   16.7680 C   0  0  0  0  0  0  0  0  0  0  0  0
   26.1600    6.3900   16.7740 O   0  0  0  0  0  0  0  0  0  0  0  0
   24.3330    7.6890   17.6400 C   0  0  0  0  0  0  0  0  0  0  0  0
   23.4130    8.8010   17.0610 C   0  0  0  0  0  0  0  0  0  0  0  0
   23.2830   11.0020   15.8560 C   0  0  0  0  0  2  0  0  0  0  0  0
   24.1250   12.1340   15.3380 C   0  0  0  0  0  3  0  0  0  0  0  0
   23.9200   12.7730   14.1790 C   0  0  0  0  0  2  0  0  0  0  0  0
   22.3000    9.1790   18.0380 C   0  0  0  0  0  0  0  0  0  0  0  0
   22.5780   10.2250   18.9510 C   0  0  0  0  0  3  0  0  0  0  0  0
   21.0200    8.5940   18.0900 C   0  0  0  0  0  0  0  0  0  0  0  0
   21.6290   10.6610   19.8770 C   0  0  0  0  0  3  0  0  0  0  0  0
   20.0720    9.0400   19.0240 C   0  0  0  0  0  3  0  0  0  0  0  0
   20.3750   10.0670   19.9150 C   0  0  0  0  0  3  0  0  0  0  0  0
   20.4460    7.1770   16.9590 Br  0  0  0  0  0  0  0  0  0  0  0  0
   24.7910    7.8970   18.9780 O   0  0  0  0  0  0  0  0  0  0  0  0
   25.0520    7.0230   19.3210 H   0  0  0  0  0  0  0  0  0  0  0  0
  1  7  1  0
  2  3  2  0
  2  1  1  0
  3  4  1  0
  4  5  2  0
  4  6  1  0
  6 18  1  0
  7  6  1  0
  7 11  1  0
  8  1  1  0
  9  8  1  0
 10  9  2  0
 11 13  1  0
 11 12  2  0
 12 14  1  0
 13 15  2  0
 14 16  2  0
 15 16  1  0
 17 13  1  0
 18 19  1  0
M  RAD  8   2   2   3   2   8   3   9   2  10   3  12   2  14   2  15   2
M  RAD  1  16   2
M  END
>  <vina_score>  (5) 
-5.3929999999999998

>  <pose_id>  (5) 
5

$$$$
