
     RDKit          3D

 24 26  0  0  1  0  0  0  0  0999 V2000
   18.2640   12.8080   13.8310 C   0  0  0  0  0  2  0  0  0  0  0  0
   17.8910   13.8110   14.9320 C   0  0  0  0  0  2  0  0  0  0  0  0
   16.3770   14.0160   15.1500 C   0  0  0  0  0  3  0  0  0  0  0  0
   15.5360   13.3740   14.0470 C   0  0  0  0  0  1  0  0  0  0  0  0
   16.0670   15.5130   15.2330 C   0  0  0  0  0  1  0  0  0  0  0  0
   19.2000   13.3030   12.8380 N   0  0  0  0  0  0  0  0  0  0  0  0
   19.0690   12.8350   11.9420 H   0  0  0  0  0  0  0  0  0  0  0  0
   19.2450   14.7280   12.6080 C   0  0  0  0  0  3  0  0  0  0  0  0
   18.3190   15.2470   11.5430 C   0  0  0  0  0  0  0  0  0  0  0  0
   20.5500   15.0010   12.0330 N   0  0  0  0  0  0  0  0  0  0  0  0
   16.9350   15.3310   11.5100 C   0  0  0  0  0  3  0  0  0  0  0  0
   19.0600   15.7610   10.4800 C   0  0  0  0  0  0  0  0  0  0  0  0
   20.4810   15.6280   10.8050 C   0  0  0  0  0  0  0  0  0  0  0  0
   16.3240   15.8970   10.3830 C   0  0  0  0  0  3  0  0  0  0  0  0
   18.4850   16.3310    9.3590 C   0  0  0  0  0  3  0  0  0  0  0  0
   21.3880   16.0370   10.1040 O   0  0  0  0  0  0  0  0  0  0  0  0
   17.0910   16.3890    9.3130 C   0  0  0  0  0  3  0  0  0  0  0  0
   21.7900   14.8120   12.7630 C   0  0  0  0  0  2  0  0  0  0  0  0
   22.6200   13.6690   12.2290 C   0  0  0  0  0  0  0  0  0  0  0  0
   23.6430   13.9000   11.2980 C   0  0  0  0  0  3  0  0  0  0  0  0
   22.3890   12.3560   12.6660 C   0  0  0  0  0  3  0  0  0  0  0  0
   24.4120   12.8420   10.8100 C   0  0  0  0  0  3  0  0  0  0  0  0
   23.1580   11.2980   12.1780 C   0  0  0  0  0  3  0  0  0  0  0  0
   24.1690   11.5410   11.2510 C   0  0  0  0  0  3  0  0  0  0  0  0
  1  2  1  0
  2  3  1  0
  3  5  1  0
  4  3  1  0
  6  1  1  0
  7  6  1  0
  8  6  1  0
  9  8  1  0
 10  8  1  0
 10 18  1  0
 11  9  2  0
 12 13  1  0
 12  9  1  0
 13 10  1  0
 14 11  1  0
 15 12  2  0
 16 13  2  0
 17 15  1  0
 17 14  2  0
 19 21  1  0
 19 18  1  0
 20 19  2  0
 22 24  2  0
 22 20  1  0
 23 21  2  0
 24 23  1  0
M  RAD  8   1   3   2   3   3   2   4   2   5   2   8   2  11   2  14   2
M  RAD  8  15   2  17   2  18   3  20   2  21   2  22   2  23   2  24   2
M  END
>  <vina_score>  (1) 
-7.2030000000000003

>  <pose_id>  (1) 
1

$$$$

     RDKit          3D

 24 26  0  0  1  0  0  0  0  0999 V2000
   20.1100   12.9120   14.2920 C   0  0  0  0  0  2  0  0  0  0  0  0
   20.5980   11.4940   14.6200 C   0  0  0  0  0  2  0  0  0  0  0  0
   20.5840   10.5030   13.4370 C   0  0  0  0  0  3  0  0  0  0  0  0
   19.1800    9.9840   13.1270 C   0  0  0  0  0  1  0  0  0  0  0  0
   21.5150    9.3270   13.7410 C   0  0  0  0  0  1  0  0  0  0  0  0
   20.2360   13.3010   12.8990 N   0  0  0  0  0  0  0  0  0  0  0  0
   19.5150   12.8640   12.3280 H   0  0  0  0  0  0  0  0  0  0  0  0
   20.2660   14.7130   12.5960 C   0  0  0  0  0  3  0  0  0  0  0  0
   19.2850   15.1780   11.5550 C   0  0  0  0  0  0  0  0  0  0  0  0
   21.5390   14.9570   11.9430 N   0  0  0  0  0  0  0  0  0  0  0  0
   17.9010   15.2610   11.5880 C   0  0  0  0  0  3  0  0  0  0  0  0
   19.9700   15.6380   10.4310 C   0  0  0  0  0  0  0  0  0  0  0  0
   21.4060   15.5210   10.6890 C   0  0  0  0  0  0  0  0  0  0  0  0
   17.2320   15.7700   10.4670 C   0  0  0  0  0  3  0  0  0  0  0  0
   19.3370   16.1500    9.3130 C   0  0  0  0  0  3  0  0  0  0  0  0
   22.2750   15.8940    9.9240 O   0  0  0  0  0  0  0  0  0  0  0  0
   17.9430   16.2060    9.3360 C   0  0  0  0  0  3  0  0  0  0  0  0
   22.8150   14.8040   12.6160 C   0  0  0  0  0  2  0  0  0  0  0  0
   23.4070   13.4240   12.4540 C   0  0  0  0  0  0  0  0  0  0  0  0
   23.9570   12.7470   13.5520 C   0  0  0  0  0  3  0  0  0  0  0  0
   23.4070   12.7920   11.2020 C   0  0  0  0  0  3  0  0  0  0  0  0
   24.4990   11.4700   13.4000 C   0  0  0  0  0  3  0  0  0  0  0  0
   23.9490   11.5150   11.0500 C   0  0  0  0  0  3  0  0  0  0  0  0
   24.4950   10.8540   12.1490 C   0  0  0  0  0  3  0  0  0  0  0  0
  1  2  1  0
  3  5  1  0
  3  2  1  0
  4  3  1  0
  6  1  1  0
  7  6  1  0
  8  6  1  0
  9 11  2  0
  9  8  1  0
 10  8  1  0
 10 18  1  0
 12 13  1  0
 12  9  1  0
 13 10  1  0
 14 11  1  0
 15 17  1  0
 15 12  2  0
 16 13  2  0
 17 14  2  0
 19 18  1  0
 19 20  2  0
 21 19  1  0
 22 20  1  0
 23 21  2  0
 23 24  1  0
 24 22  2  0
M  RAD  8   1   3   2   3   3   2   4   2   5   2   8   2  11   2  14   2
M  RAD  8  15   2  17   2  18   3  20   2  21   2  22   2  23   2  24   2
M  END
>  <vina_score>  (2) 
-7.0170000000000003

>  <pose_id>  (2) 
2

$$$$

     RDKit          3D

 24 26  0  0  1  0  0  0  0  0999 V2000
   21.8150   15.0110   13.2340 C   0  0  0  0  0  2  0  0  0  0  0  0
   22.3260   14.3340   11.9540 C   0  0  0  0  0  2  0  0  0  0  0  0
   23.1060   13.0210   12.1700 C   0  0  0  0  0  3  0  0  0  0  0  0
   23.9860   13.0630   13.4190 C   0  0  0  0  0  1  0  0  0  0  0  0
   23.9680   12.7260   10.9400 C   0  0  0  0  0  1  0  0  0  0  0  0
   20.4100   15.3760   13.2200 N   0  0  0  0  0  0  0  0  0  0  0  0
   20.2810   16.3350   12.9030 H   0  0  0  0  0  0  0  0  0  0  0  0
   19.5020   14.5260   12.4850 C   0  0  0  0  0  3  0  0  0  0  0  0
   18.7250   15.1970   11.3870 C   0  0  0  0  0  0  0  0  0  0  0  0
   18.4530   14.1580   13.4170 N   0  0  0  0  0  0  0  0  0  0  0  0
   19.1420   15.7230   10.1730 C   0  0  0  0  0  3  0  0  0  0  0  0
   17.3650   15.1910   11.6970 C   0  0  0  0  0  0  0  0  0  0  0  0
   17.1900   14.5050   12.9780 C   0  0  0  0  0  0  0  0  0  0  0  0
   18.1810   16.2710    9.3130 C   0  0  0  0  0  3  0  0  0  0  0  0
   16.3950   15.7190   10.8650 C   0  0  0  0  0  3  0  0  0  0  0  0
   16.1130   14.2840   13.4980 O   0  0  0  0  0  0  0  0  0  0  0  0
   16.8180   16.2750    9.6580 C   0  0  0  0  0  3  0  0  0  0  0  0
   18.6900   13.3380   14.5910 C   0  0  0  0  0  2  0  0  0  0  0  0
   19.4130   12.0510   14.2770 C   0  0  0  0  0  0  0  0  0  0  0  0
   20.6940   11.8050   14.7910 C   0  0  0  0  0  3  0  0  0  0  0  0
   18.8100   11.0720   13.4720 C   0  0  0  0  0  3  0  0  0  0  0  0
   21.3580   10.6110   14.5030 C   0  0  0  0  0  3  0  0  0  0  0  0
   19.4740    9.8800   13.1840 C   0  0  0  0  0  3  0  0  0  0  0  0
   20.7480    9.6490   13.6990 C   0  0  0  0  0  3  0  0  0  0  0  0
  2  3  1  0
  2  1  1  0
  3  4  1  0
  5  3  1  0
  6  1  1  0
  7  6  1  0
  8  6  1  0
  8 10  1  0
  9 12  1  0
  9  8  1  0
 10 18  1  0
 11  9  2  0
 12 13  1  0
 13 10  1  0
 13 16  2  0
 14 17  2  0
 14 11  1  0
 15 12  2  0
 17 15  1  0
 19 18  1  0
 19 20  2  0
 21 19  1  0
 22 20  1  0
 23 21  2  0
 23 24  1  0
 24 22  2  0
M  RAD  8   1   3   2   3   3   2   4   2   5   2   8   2  11   2  14   2
M  RAD  8  15   2  17   2  18   3  20   2  21   2  22   2  23   2  24   2
M  END
>  <vina_score>  (3) 
-6.9400000000000004

>  <pose_id>  (3) 
3

$$$$

     RDKit          3D

 24 26  0  0  1  0  0  0  0  0999 V2000
   20.5620   11.4490   13.1940 C   0  0  0  0  0  2  0  0  0  0  0  0
   20.9100   11.6150   14.6790 C   0  0  0  0  0  2  0  0  0  0  0  0
   21.3420   10.3220   15.4030 C   0  0  0  0  0  3  0  0  0  0  0  0
   20.5650    9.0960   14.9210 C   0  0  0  0  0  1  0  0  0  0  0  0
   21.1580   10.4900   16.9130 C   0  0  0  0  0  1  0  0  0  0  0  0
   21.7010   11.4230   12.2930 N   0  0  0  0  0  0  0  0  0  0  0  0
   21.4010   11.3630   11.3210 H   0  0  0  0  0  0  0  0  0  0  0  0
   22.6730   12.4840   12.4080 C   0  0  0  0  0  3  0  0  0  0  0  0
   22.3960   13.7140   11.5870 C   0  0  0  0  0  0  0  0  0  0  0  0
   23.8910   11.9820   11.7990 N   0  0  0  0  0  0  0  0  0  0  0  0
   21.4020   14.6740   11.7020 C   0  0  0  0  0  3  0  0  0  0  0  0
   23.3840   13.8660   10.6150 C   0  0  0  0  0  0  0  0  0  0  0  0
   24.3500   12.7770   10.7670 C   0  0  0  0  0  0  0  0  0  0  0  0
   21.4010   15.7500   10.8040 C   0  0  0  0  0  3  0  0  0  0  0  0
   23.4120   14.9200    9.7200 C   0  0  0  0  0  3  0  0  0  0  0  0
   25.3640   12.6590   10.1050 O   0  0  0  0  0  0  0  0  0  0  0  0
   22.3940   15.8700    9.8170 C   0  0  0  0  0  3  0  0  0  0  0  0
   24.6480   10.8710   12.3450 C   0  0  0  0  0  2  0  0  0  0  0  0
   24.7450   10.9060   13.8510 C   0  0  0  0  0  0  0  0  0  0  0  0
   24.7910   12.1280   14.5380 C   0  0  0  0  0  3  0  0  0  0  0  0
   24.7810    9.7150   14.5920 C   0  0  0  0  0  3  0  0  0  0  0  0
   24.8750   12.1580   15.9310 C   0  0  0  0  0  3  0  0  0  0  0  0
   24.8670    9.7450   15.9840 C   0  0  0  0  0  3  0  0  0  0  0  0
   24.9140   10.9670   16.6530 C   0  0  0  0  0  3  0  0  0  0  0  0
  1  2  1  0
  2  3  1  0
  3  5  1  0
  4  3  1  0
  6  1  1  0
  7  6  1  0
  8  6  1  0
  9 11  2  0
  9  8  1  0
 10 18  1  0
 10  8  1  0
 12 13  1  0
 12  9  1  0
 13 10  1  0
 14 11  1  0
 15 17  1  0
 15 12  2  0
 16 13  2  0
 17 14  2  0
 18 19  1  0
 19 20  2  0
 19 21  1  0
 20 22  1  0
 21 23  2  0
 22 24  2  0
 23 24  1  0
M  RAD  8   1   3   2   3   3   2   4   2   5   2   8   2  11   2  14   2
M  RAD  8  15   2  17   2  18   3  20   2  21   2  22   2  23   2  24   2
M  END
>  <vina_score>  (4) 
-6.5049999999999999

>  <pose_id>  (4) 
4

$$$$

     RDKit          3D

 24 26  0  0  1  0  0  0  0  0999 V2000
   19.8400    9.8400   18.2700 C   0  0  0  0  0  2  0  0  0  0  0  0
   18.9430    8.6920   17.7870 C   0  0  0  0  0  2  0  0  0  0  0  0
   18.4350    7.7430   18.8930 C   0  0  0  0  0  3  0  0  0  0  0  0
   16.9110    7.7490   19.0120 C   0  0  0  0  0  1  0  0  0  0  0  0
   19.0610    8.1320   20.2340 C   0  0  0  0  0  1  0  0  0  0  0  0
   19.5550   11.1350   17.6790 N   0  0  0  0  0  0  0  0  0  0  0  0
   19.2430   11.0400   16.7140 H   0  0  0  0  0  0  0  0  0  0  0  0
   18.6310   12.0020   18.3740 C   0  0  0  0  0  3  0  0  0  0  0  0
   18.3820   11.6670   19.8180 C   0  0  0  0  0  0  0  0  0  0  0  0
   17.3290   11.7620   17.7790 N   0  0  0  0  0  0  0  0  0  0  0  0
   19.2170   11.7460   20.9230 C   0  0  0  0  0  3  0  0  0  0  0  0
   17.0540   11.2790   19.9920 C   0  0  0  0  0  0  0  0  0  0  0  0
   16.3770   11.3650   18.6970 C   0  0  0  0  0  0  0  0  0  0  0  0
   18.7040   11.3930   22.1790 C   0  0  0  0  0  3  0  0  0  0  0  0
   16.5200   10.9300   21.2190 C   0  0  0  0  0  3  0  0  0  0  0  0
   15.1930   11.1470   18.5240 O   0  0  0  0  0  0  0  0  0  0  0  0
   17.3680   10.9830   22.3260 C   0  0  0  0  0  3  0  0  0  0  0  0
   17.0170   12.0930   16.4010 C   0  0  0  0  0  2  0  0  0  0  0  0
   16.8600   13.5770   16.1710 C   0  0  0  0  0  0  0  0  0  0  0  0
   17.8030   14.2880   15.4150 C   0  0  0  0  0  3  0  0  0  0  0  0
   15.7610   14.2690   16.7010 C   0  0  0  0  0  3  0  0  0  0  0  0
   17.6530   15.6590   15.1990 C   0  0  0  0  0  3  0  0  0  0  0  0
   15.6110   15.6390   16.4860 C   0  0  0  0  0  3  0  0  0  0  0  0
   16.5570   16.3340   15.7350 C   0  0  0  0  0  3  0  0  0  0  0  0
  2  1  1  0
  2  3  1  0
  3  4  1  0
  3  5  1  0
  6  1  1  0
  7  6  1  0
  8  6  1  0
  8  9  1  0
  9 12  1  0
  9 11  2  0
 10  8  1  0
 10 13  1  0
 11 14  1  0
 12 15  2  0
 13 12  1  0
 14 17  2  0
 15 17  1  0
 16 13  2  0
 18 10  1  0
 19 18  1  0
 19 21  1  0
 20 19  2  0
 22 20  1  0
 22 24  2  0
 23 21  2  0
 24 23  1  0
M  RAD  8   1   3   2   3   3   2   4   2   5   2   8   2  11   2  14   2
M  RAD  8  15   2  17   2  18   3  20   2  21   2  22   2  23   2  24   2
M  END
>  <vina_score>  (5) 
-6.4980000000000002

>  <pose_id>  (5) 
5

$$$$
