BGI
     RDKit          3D

 50 52  0  0  1  0  0  0  0  0999 V2000
   20.4050   10.9820   14.3340 C   0  0  0  0  0  0  0  0  0  0  0  0
   19.1480   11.3240   15.1350 C   0  0  0  0  0  0  0  0  0  0  0  0
   18.3070   11.5650   17.2580 C   0  0  0  0  0  0  0  0  0  0  0  0
   19.0290   12.8530   15.3200 C   0  0  0  0  0  0  0  0  0  0  0  0
   18.4620   13.0150   16.7490 C   0  0  0  0  0  0  0  0  0  0  0  0
   19.2460   10.7940   16.4750 O   0  0  0  0  0  0  0  0  0  0  0  0
   20.2620   11.3270   20.3780 C   0  0  0  0  0  3  0  0  0  0  0  0
   17.6600   11.5160   19.6000 C   0  0  0  0  0  0  0  0  0  0  0  0
   19.9520   11.3900   19.0650 C   0  0  0  0  0  3  0  0  0  0  0  0
   19.2180   11.3560   21.3340 C   0  0  0  0  0  0  0  0  0  0  0  0
   18.6420   11.4850   18.6820 N   0  0  0  0  0  0  0  0  0  0  0  0
   17.9390   11.4440   20.9150 N   0  0  0  0  0  0  0  0  0  0  0  0
   19.4730   11.3000   22.5240 O   0  0  0  0  0  0  0  0  0  0  0  0
   16.5030   11.6090   19.2380 O   0  0  0  0  0  0  0  0  0  0  0  0
   17.1940   13.6720   16.7160 O   0  0  0  0  0  0  0  0  0  0  0  0
   18.1290   13.4060   14.3570 O   0  0  0  0  0  0  0  0  0  0  0  0
   22.3300   12.3440   13.7150 C   0  0  0  0  0  0  0  0  0  0  0  0
   20.9900   12.2130   13.7950 N   0  0  0  0  0  0  0  0  0  0  0  0
   23.0500   11.4410   14.0830 O   0  0  0  0  0  0  0  0  0  0  0  0
   22.9320   13.6110   13.1620 C   0  0  0  0  0  0  0  0  0  0  0  0
   24.3970   13.5270   13.2320 N   0  0  0  0  0  1  0  0  0  0  0  0
   23.6340   13.3380   10.7790 C   0  0  0  0  0  1  0  0  0  0  0  0
   22.5000   13.7860   11.7050 C   0  0  0  0  0  0  0  0  0  0  0  0
   22.1780   15.2570   11.4420 C   0  0  0  0  0  0  0  0  0  0  0  0
   20.7150   15.4000   11.1110 C   0  0  0  0  0  0  0  0  0  0  0  0
   18.5180   15.0840   11.7300 C   0  0  0  0  0  3  0  0  0  0  0  0
   18.0640   15.6430   10.5440 C   0  0  0  0  0  0  0  0  0  0  0  0
   18.9920   16.0910    9.6090 C   0  0  0  0  0  3  0  0  0  0  0  0
   20.3390   15.9630    9.9060 C   0  0  0  0  0  3  0  0  0  0  0  0
   19.8090   14.9810   11.9740 N   0  0  0  0  0  0  0  0  0  0  0  0
   16.7320   15.7470   10.2970 O   0  0  0  0  0  0  0  0  0  0  0  0
   22.4790   16.0270   12.6080 O   0  0  0  0  0  0  0  0  0  0  0  0
   20.0430   10.0610   13.1980 C   0  0  0  0  0  0  0  0  0  0  0  0
   20.5670    8.8260   13.1420 O   0  0  0  0  0  0  0  0  0  0  0  0
   19.2790   10.4330   12.3380 O   0  0  0  0  0  0  0  0  0  0  0  0
   21.1338   10.4850   14.9912 H   0  0  0  0  0  0  0  0  0  0  0  0
   18.2933   10.9042   14.5843 H   0  0  0  0  0  0  0  0  0  0  0  0
   17.2763   11.1956   17.1519 H   0  0  0  0  0  0  0  0  0  0  0  0
   19.9887   13.3730   15.1833 H   0  0  0  0  0  0  0  0  0  0  0  0
   19.1111   13.6248   17.3946 H   0  0  0  0  0  0  0  0  0  0  0  0
   17.1731   11.4562   21.6036 H   0  0  0  0  0  0  0  0  0  0  0  0
   16.8819   13.8337   17.6415 H   0  0  0  0  0  0  0  0  0  0  0  0
   17.3855   13.8629   14.8244 H   0  0  0  0  0  0  0  0  0  0  0  0
   20.3778   12.9780   13.4773 H   0  0  0  0  0  0  0  0  0  0  0  0
   22.5853   14.4714   13.7532 H   0  0  0  0  0  0  0  0  0  0  0  0
   21.6060   13.1749   11.5118 H   0  0  0  0  0  0  0  0  0  0  0  0
   22.7826   15.6185   10.5972 H   0  0  0  0  0  0  0  0  0  0  0  0
   16.4157   16.1470    9.4485 H   0  0  0  0  0  0  0  0  0  0  0  0
   22.2713   15.4956   13.4171 H   0  0  0  0  0  0  0  0  0  0  0  0
   19.0412    9.8277   11.5916 H   0  0  0  0  0  0  0  0  0  0  0  0
  1 33  1  0
  2  1  1  0
  2  4  1  0
  2  6  1  0
  3 11  1  0
  4 16  1  0
  4  5  1  0
  5 15  1  0
  5  3  1  0
  6  3  1  0
  7 10  1  0
  8 12  1  0
  9  7  2  0
 10 13  2  0
 11  9  1  0
 11  8  1  0
 12 10  1  0
 14  8  2  0
 17 18  1  0
 17 19  2  0
 18  1  1  0
 21 20  1  1
 20 17  1  0
 23 22  1  0
 23 20  1  0
 24 23  1  0
 24 32  1  0
 25 24  1  0
 25 30  2  0
 26 30  1  0
 27 26  2  0
 28 29  2  0
 28 27  1  0
 29 25  1  0
 31 27  1  0
 34 33  2  0
 35 33  1  0
  1 36  1  0
  2 37  1  0
  3 38  1  0
  4 39  1  0
  5 40  1  0
 12 41  1  0
 15 42  1  0
 16 43  1  0
 18 44  1  0
 20 45  1  0
 23 46  1  0
 24 47  1  0
 31 48  1  0
 32 49  1  0
 35 50  1  0
M  RAD  7   7   2   9   2  21   3  22   2  26   2  28   2  29   2
M  END
>  <vina_score>  (1) 
-7.6130000000000004

>  <pose_id>  (1) 
1

$$$$
BGI
     RDKit          3D

 49 51  0  0  1  0  0  0  0  0999 V2000
   17.6670    8.7040   14.5320 C   0  0  0  0  0  0  0  0  0  0  0  0
   17.5280   10.0030   13.7370 C   0  0  0  0  0  0  0  0  0  0  0  0
   16.9020   12.2080   13.8760 C   0  0  0  0  0  0  0  0  0  0  0  0
   18.8670   10.7740   13.7310 C   0  0  0  0  0  0  0  0  0  0  0  0
   18.4450   12.2580   13.8250 C   0  0  0  0  0  0  0  0  0  0  0  0
   16.5910   10.8910   14.3840 O   0  0  0  0  0  0  0  0  0  0  0  0
   15.7890   13.9190   16.9490 C   0  0  0  0  0  3  0  0  0  0  0  0
   16.0620   14.4500   14.2930 C   0  0  0  0  0  0  0  0  0  0  0  0
   16.2530   12.9650   16.1140 C   0  0  0  0  0  3  0  0  0  0  0  0
   15.4460   15.1880   16.4220 C   0  0  0  0  0  0  0  0  0  0  0  0
   16.3880   13.2390   14.7810 N   0  0  0  0  0  0  0  0  0  0  0  0
   15.5870   15.4160   15.1010 N   0  0  0  0  0  0  0  0  0  0  0  0
   15.0240   16.0630   17.1560 O   0  0  0  0  0  0  0  0  0  0  0  0
   16.1970   14.6750   13.1060 O   0  0  0  0  0  0  0  0  0  0  0  0
   18.8840   12.9790   12.6710 O   0  0  0  0  0  0  0  0  0  0  0  0
   19.5800   10.5300   12.5170 O   0  0  0  0  0  0  0  0  0  0  0  0
   18.2220    8.7430   16.9050 C   0  0  0  0  0  0  0  0  0  0  0  0
   18.6210    8.9010   15.6270 N   0  0  0  0  0  0  0  0  0  0  0  0
   17.0770    8.4310   17.1480 O   0  0  0  0  0  0  0  0  0  0  0  0
   19.2040    8.9460   18.0310 C   0  0  0  0  0  0  0  0  0  0  0  0
   20.5070    9.3400   17.4790 N   0  0  0  0  0  1  0  0  0  0  0  0
   18.9860   11.4150   18.3460 C   0  0  0  0  0  1  0  0  0  0  0  0
   18.6910   10.0460   18.9620 C   0  0  0  0  0  0  0  0  0  0  0  0
   19.3920    9.9350   20.3170 C   0  0  0  0  0  0  0  0  0  0  0  0
   18.5130   10.5280   21.3870 C   0  0  0  0  0  0  0  0  0  0  0  0
   18.3270   11.8020   23.2980 C   0  0  0  0  0  3  0  0  0  0  0  0
   16.9530   11.6130   23.3370 C   0  0  0  0  0  0  0  0  0  0  0  0
   16.3500   10.8390   22.3510 C   0  0  0  0  0  3  0  0  0  0  0  0
   17.1510   10.2900   21.3630 C   0  0  0  0  0  3  0  0  0  0  0  0
   19.0540   11.2630   22.3400 N   0  0  0  0  0  0  0  0  0  0  0  0
   16.2080   12.1710   24.3270 O   0  0  0  0  0  0  0  0  0  0  0  0
   19.6400    8.5590   20.6140 O   0  0  0  0  0  0  0  0  0  0  0  0
   18.1640    7.6090   13.6240 C   0  0  0  0  0  0  0  0  0  0  0  0
   17.2940    6.7560   13.0610 O   0  0  0  0  0  0  0  0  0  0  0  0
   19.3480    7.4990   13.4020 O   0  0  0  0  0  1  0  0  0  0  0  0
   16.6876    8.4210   14.9451 H   0  0  0  0  0  0  0  0  0  0  0  0
   17.2035    9.7249   12.7234 H   0  0  0  0  0  0  0  0  0  0  0  0
   16.4468   12.3920   12.8917 H   0  0  0  0  0  0  0  0  0  0  0  0
   19.5356   10.4710   14.5502 H   0  0  0  0  0  0  0  0  0  0  0  0
   18.8822   12.7675   14.6964 H   0  0  0  0  0  0  0  0  0  0  0  0
   15.3303   16.3330   14.7084 H   0  0  0  0  0  0  0  0  0  0  0  0
   19.3771   13.7889   12.9557 H   0  0  0  0  0  0  0  0  0  0  0  0
   20.4950   10.2169   12.7289 H   0  0  0  0  0  0  0  0  0  0  0  0
   19.5962    9.1601   15.4202 H   0  0  0  0  0  0  0  0  0  0  0  0
   19.3135    8.0086   18.5960 H   0  0  0  0  0  0  0  0  0  0  0  0
   17.6056    9.9325   19.1000 H   0  0  0  0  0  0  0  0  0  0  0  0
   20.3464   10.4807   20.2815 H   0  0  0  0  0  0  0  0  0  0  0  0
   15.2281   12.0314   24.3477 H   0  0  0  0  0  0  0  0  0  0  0  0
   19.6629    8.4322   21.5956 H   0  0  0  0  0  0  0  0  0  0  0  0
  1 33  1  0
  1 18  1  0
  2  6  1  0
  2  1  1  0
  3  6  1  0
  3 11  1  0
  4 16  1  0
  4  2  1  0
  4  5  1  0
  5 15  1  0
  5  3  1  0
  8 11  1  0
  8 12  1  0
  9  7  2  0
 10  7  1  0
 10 13  2  0
 11  9  1  0
 12 10  1  0
 14  8  2  0
 17 19  2  0
 18 17  1  0
 20 17  1  0
 20 23  1  0
 21 20  1  1
 23 22  1  0
 23 24  1  0
 24 32  1  0
 24 25  1  0
 25 30  2  0
 26 27  2  0
 27 31  1  0
 28 27  1  0
 29 25  1  0
 29 28  2  0
 30 26  1  0
 34 33  2  0
 35 33  1  0
  1 36  1  0
  2 37  1  0
  3 38  1  0
  4 39  1  0
  5 40  1  0
 12 41  1  0
 15 42  1  0
 16 43  1  0
 18 44  1  0
 20 45  1  0
 23 46  1  0
 24 47  1  0
 31 48  1  0
 32 49  1  0
M  RAD  8   7   2   9   2  21   3  22   2  26   2  28   2  29   2  35   2
M  END
>  <vina_score>  (2) 
-7.5350000000000001

>  <pose_id>  (2) 
2

$$$$
BGI
     RDKit          3D

 50 52  0  0  1  0  0  0  0  0999 V2000
   18.9380   10.9760   14.4280 C   0  0  0  0  0  0  0  0  0  0  0  0
   19.2480   12.4680   14.3040 C   0  0  0  0  0  0  0  0  0  0  0  0
   18.6960   14.3940   13.1810 C   0  0  0  0  0  0  0  0  0  0  0  0
   18.4210   13.2760   15.3290 C   0  0  0  0  0  0  0  0  0  0  0  0
   18.0500   14.5720   14.5730 C   0  0  0  0  0  0  0  0  0  0  0  0
   18.8280   12.9640   13.0140 O   0  0  0  0  0  0  0  0  0  0  0  0
   15.6720   15.4660   11.3590 C   0  0  0  0  0  3  0  0  0  0  0  0
   18.3750   15.4780   11.0300 C   0  0  0  0  0  0  0  0  0  0  0  0
   16.4710   14.9420   12.3130 C   0  0  0  0  0  3  0  0  0  0  0  0
   16.2600   16.0130   10.1930 C   0  0  0  0  0  0  0  0  0  0  0  0
   17.8280   14.9520   12.1410 N   0  0  0  0  0  0  0  0  0  0  0  0
   17.6020   15.9980   10.0590 N   0  0  0  0  0  0  0  0  0  0  0  0
   15.5600   16.4900    9.3180 O   0  0  0  0  0  0  0  0  0  0  0  0
   19.5840   15.4850   10.9010 O   0  0  0  0  0  0  0  0  0  0  0  0
   18.5950   15.7140   15.2360 O   0  0  0  0  0  0  0  0  0  0  0  0
   19.2090   13.5750   16.4830 O   0  0  0  0  0  0  0  0  0  0  0  0
   18.6580    9.6720   16.4680 C   0  0  0  0  0  0  0  0  0  0  0  0
   19.4320   10.4790   15.7150 N   0  0  0  0  0  0  0  0  0  0  0  0
   17.5560    9.3510   16.0760 O   0  0  0  0  0  0  0  0  0  0  0  0
   19.1660    9.1620   17.7920 C   0  0  0  0  0  0  0  0  0  0  0  0
   20.5820    9.5210   17.9440 N   0  0  0  0  0  1  0  0  0  0  0  0
   18.1470   11.2820   18.6380 C   0  0  0  0  0  1  0  0  0  0  0  0
   18.3550    9.7930   18.9260 C   0  0  0  0  0  0  0  0  0  0  0  0
   19.1120    9.6290   20.2450 C   0  0  0  0  0  0  0  0  0  0  0  0
   18.3410   10.2990   21.3530 C   0  0  0  0  0  0  0  0  0  0  0  0
   18.3530   11.6330   23.2320 C   0  0  0  0  0  3  0  0  0  0  0  0
   16.9770   11.5210   23.3670 C   0  0  0  0  0  0  0  0  0  0  0  0
   16.2680   10.7550   22.4480 C   0  0  0  0  0  3  0  0  0  0  0  0
   16.9690   10.1360   21.4260 C   0  0  0  0  0  3  0  0  0  0  0  0
   18.9830   11.0290   22.2450 N   0  0  0  0  0  0  0  0  0  0  0  0
   16.3320   12.1460   24.3870 O   0  0  0  0  0  0  0  0  0  0  0  0
   19.2590    8.2390   20.5410 O   0  0  0  0  0  0  0  0  0  0  0  0
   19.6140   10.2270   13.3080 C   0  0  0  0  0  0  0  0  0  0  0  0
   20.8530   10.5700   12.9230 O   0  0  0  0  0  0  0  0  0  0  0  0
   19.0400    9.3160   12.7570 O   0  0  0  0  0  0  0  0  0  0  0  0
   17.8504   10.8221   14.3684 H   0  0  0  0  0  0  0  0  0  0  0  0
   20.3307   12.5833   14.4604 H   0  0  0  0  0  0  0  0  0  0  0  0
   19.6629   14.9125   13.1014 H   0  0  0  0  0  0  0  0  0  0  0  0
   17.5375   12.7283   15.6890 H   0  0  0  0  0  0  0  0  0  0  0  0
   16.9633   14.7333   14.5184 H   0  0  0  0  0  0  0  0  0  0  0  0
   18.0370   16.3862    9.2099 H   0  0  0  0  0  0  0  0  0  0  0  0
   18.5343   15.5869   16.2159 H   0  0  0  0  0  0  0  0  0  0  0  0
   18.6862   13.3766   17.3000 H   0  0  0  0  0  0  0  0  0  0  0  0
   20.3706   10.7463   16.0443 H   0  0  0  0  0  0  0  0  0  0  0  0
   19.0593    8.0678   17.8294 H   0  0  0  0  0  0  0  0  0  0  0  0
   17.3772    9.2946   18.9995 H   0  0  0  0  0  0  0  0  0  0  0  0
   20.1059   10.0921   20.1569 H   0  0  0  0  0  0  0  0  0  0  0  0
   15.3497   12.0616   24.4771 H   0  0  0  0  0  0  0  0  0  0  0  0
   19.2726    8.1103   21.5225 H   0  0  0  0  0  0  0  0  0  0  0  0
   19.4838    8.8240   12.0214 H   0  0  0  0  0  0  0  0  0  0  0  0
  1 33  1  0
  1 18  1  0
  2  1  1  0
  2  4  1  0
  3 11  1  0
  3  5  1  0
  4 16  1  0
  5 15  1  0
  5  4  1  0
  6  3  1  0
  6  2  1  0
  7  9  2  0
  8 11  1  0
 10  7  1  0
 11  9  1  0
 12 10  1  0
 12  8  1  0
 13 10  2  0
 14  8  2  0
 18 17  1  0
 19 17  2  0
 20 17  1  0
 21 20  1  1
 20 23  1  0
 23 22  1  0
 23 24  1  0
 24 32  1  0
 24 25  1  0
 25 29  1  0
 25 30  2  0
 26 27  2  0
 27 31  1  0
 28 27  1  0
 29 28  2  0
 30 26  1  0
 34 33  2  0
 35 33  1  0
  1 36  1  0
  2 37  1  0
  3 38  1  0
  4 39  1  0
  5 40  1  0
 12 41  1  0
 15 42  1  0
 16 43  1  0
 18 44  1  0
 20 45  1  0
 23 46  1  0
 24 47  1  0
 31 48  1  0
 32 49  1  0
 35 50  1  0
M  RAD  7   7   2   9   2  21   3  22   2  26   2  28   2  29   2
M  END
>  <vina_score>  (3) 
-7.532

>  <pose_id>  (3) 
3

$$$$
BGI
     RDKit          3D

 50 52  0  0  1  0  0  0  0  0999 V2000
   22.3430    9.2360   15.3740 C   0  0  0  0  0  0  0  0  0  0  0  0
   23.5920   10.0070   14.9460 C   0  0  0  0  0  0  0  0  0  0  0  0
   24.3780   11.6230   13.5150 C   0  0  0  0  0  0  0  0  0  0  0  0
   23.7970   11.2430   15.8510 C   0  0  0  0  0  0  0  0  0  0  0  0
   24.3260   12.3300   14.8880 C   0  0  0  0  0  0  0  0  0  0  0  0
   23.4200   10.5460   13.6170 O   0  0  0  0  0  0  0  0  0  0  0  0
   22.8980   14.5170   11.7690 C   0  0  0  0  0  3  0  0  0  0  0  0
   24.3870   12.3140   11.1850 C   0  0  0  0  0  0  0  0  0  0  0  0
   23.2440   13.6560   12.7500 C   0  0  0  0  0  3  0  0  0  0  0  0
   23.3160   14.2520   10.4420 C   0  0  0  0  0  0  0  0  0  0  0  0
   23.9930   12.5510   12.4490 N   0  0  0  0  0  0  0  0  0  0  0  0
   24.0480   13.1490   10.1860 N   0  0  0  0  0  0  0  0  0  0  0  0
   23.0150   15.0140    9.5400 O   0  0  0  0  0  0  0  0  0  0  0  0
   25.0600   11.3300   10.9410 O   0  0  0  0  0  0  0  0  0  0  0  0
   25.6320   12.7570   15.2810 O   0  0  0  0  0  0  0  0  0  0  0  0
   24.7590   10.9630   16.8700 O   0  0  0  0  0  0  0  0  0  0  0  0
   21.0310    9.1940   17.4280 C   0  0  0  0  0  0  0  0  0  0  0  0
   22.2420    9.2450   16.8360 N   0  0  0  0  0  0  0  0  0  0  0  0
   20.0280    9.1340   16.7510 O   0  0  0  0  0  0  0  0  0  0  0  0
   20.9270    9.2040   18.9320 C   0  0  0  0  0  0  0  0  0  0  0  0
   22.1460    9.7930   19.5030 N   0  0  0  0  0  1  0  0  0  0  0  0
   19.9280   11.4940   18.9470 C   0  0  0  0  0  1  0  0  0  0  0  0
   19.7140   10.0340   19.3540 C   0  0  0  0  0  0  0  0  0  0  0  0
   19.5390    9.9480   20.8700 C   0  0  0  0  0  0  0  0  0  0  0  0
   18.0860   10.1370   21.2200 C   0  0  0  0  0  0  0  0  0  0  0  0
   15.8830    9.5680   20.8530 C   0  0  0  0  0  3  0  0  0  0  0  0
   15.4520   10.4550   21.8290 C   0  0  0  0  0  0  0  0  0  0  0  0
   16.3940   11.2130   22.5170 C   0  0  0  0  0  3  0  0  0  0  0  0
   17.7320   11.0450   22.2010 C   0  0  0  0  0  3  0  0  0  0  0  0
   17.1660    9.4370   20.5830 N   0  0  0  0  0  0  0  0  0  0  0  0
   14.1280   10.5860   22.1040 O   0  0  0  0  0  0  0  0  0  0  0  0
   19.9750    8.6670   21.3280 O   0  0  0  0  0  0  0  0  0  0  0  0
   22.4390    7.8130   14.8870 C   0  0  0  0  0  0  0  0  0  0  0  0
   23.4590    7.0350   15.2820 O   0  0  0  0  0  0  0  0  0  0  0  0
   21.5980    7.3720   14.1390 O   0  0  0  0  0  0  0  0  0  0  0  0
   21.4513    9.7125   14.9406 H   0  0  0  0  0  0  0  0  0  0  0  0
   24.4363    9.3043   15.0034 H   0  0  0  0  0  0  0  0  0  0  0  0
   25.3872   11.2593   13.2716 H   0  0  0  0  0  0  0  0  0  0  0  0
   22.8755   11.5482   16.3683 H   0  0  0  0  0  0  0  0  0  0  0  0
   23.6940   13.2302   14.8781 H   0  0  0  0  0  0  0  0  0  0  0  0
   24.3487   12.9449    9.2222 H   0  0  0  0  0  0  0  0  0  0  0  0
   25.6896   12.7758   16.2691 H   0  0  0  0  0  0  0  0  0  0  0  0
   24.3421   11.0843   17.7597 H   0  0  0  0  0  0  0  0  0  0  0  0
   23.0952    9.2902   17.4112 H   0  0  0  0  0  0  0  0  0  0  0  0
   20.8111    8.1733   19.2983 H   0  0  0  0  0  0  0  0  0  0  0  0
   18.8129    9.6434   18.8586 H   0  0  0  0  0  0  0  0  0  0  0  0
   20.1381   10.7342   21.3526 H   0  0  0  0  0  0  0  0  0  0  0  0
   13.8278   11.2209   22.8018 H   0  0  0  0  0  0  0  0  0  0  0  0
   19.9793    8.6544   22.3179 H   0  0  0  0  0  0  0  0  0  0  0  0
   21.6612    6.4372   13.8192 H   0  0  0  0  0  0  0  0  0  0  0  0
  1 33  1  0
  1 18  1  0
  2  1  1  0
  2  4  1  0
  3 11  1  0
  3  6  1  0
  3  5  1  0
  4 16  1  0
  5 15  1  0
  5  4  1  0
  6  2  1  0
  7  9  2  0
  8 11  1  0
 10  7  1  0
 11  9  1  0
 12 10  1  0
 12  8  1  0
 13 10  2  0
 14  8  2  0
 18 17  1  0
 19 17  2  0
 20 17  1  0
 20 23  1  0
 21 20  1  1
 23 22  1  0
 23 24  1  0
 24 25  1  0
 24 32  1  0
 25 29  1  0
 26 27  2  0
 27 31  1  0
 27 28  1  0
 29 28  2  0
 30 26  1  0
 30 25  2  0
 33 34  2  0
 35 33  1  0
  1 36  1  0
  2 37  1  0
  3 38  1  0
  4 39  1  0
  5 40  1  0
 12 41  1  0
 15 42  1  0
 16 43  1  0
 18 44  1  0
 20 45  1  0
 23 46  1  0
 24 47  1  0
 31 48  1  0
 32 49  1  0
 35 50  1  0
M  RAD  7   7   2   9   2  21   3  22   2  26   2  28   2  29   2
M  END
>  <vina_score>  (4) 
-7.476

>  <pose_id>  (4) 
4

$$$$
BGI
     RDKit          3D

 50 52  0  0  1  0  0  0  0  0999 V2000
   20.1350   11.3180   14.5950 C   0  0  0  0  0  0  0  0  0  0  0  0
   19.6130   12.7350   14.8370 C   0  0  0  0  0  0  0  0  0  0  0  0
   18.1460   14.3300   14.0760 C   0  0  0  0  0  0  0  0  0  0  0  0
   18.4660   12.7150   15.8730 C   0  0  0  0  0  0  0  0  0  0  0  0
   17.4790   13.7890   15.3600 C   0  0  0  0  0  0  0  0  0  0  0  0
   19.0160   13.2640   13.6330 O   0  0  0  0  0  0  0  0  0  0  0  0
   15.0100   14.2090   12.1360 C   0  0  0  0  0  3  0  0  0  0  0  0
   17.3720   15.5620   12.1300 C   0  0  0  0  0  0  0  0  0  0  0  0
   15.9480   13.9340   13.0680 C   0  0  0  0  0  3  0  0  0  0  0  0
   15.2760   15.2000   11.1620 C   0  0  0  0  0  0  0  0  0  0  0  0
   17.1320   14.6190   13.0580 N   0  0  0  0  0  0  0  0  0  0  0  0
   16.4580   15.8480   11.1830 N   0  0  0  0  0  0  0  0  0  0  0  0
   14.4460   15.4640   10.3110 O   0  0  0  0  0  0  0  0  0  0  0  0
   18.4280   16.1650   12.1450 O   0  0  0  0  0  0  0  0  0  0  0  0
   17.3290   14.8330   16.3240 O   0  0  0  0  0  0  0  0  0  0  0  0
   18.9570   13.0610   17.1700 O   0  0  0  0  0  0  0  0  0  0  0  0
   21.9230   10.9060   16.1990 C   0  0  0  0  0  0  0  0  0  0  0  0
   21.5550   11.2540   14.9490 N   0  0  0  0  0  0  0  0  0  0  0  0
   21.0790   10.6400   17.0260 O   0  0  0  0  0  0  0  0  0  0  0  0
   23.3840   10.8400   16.5630 C   0  0  0  0  0  0  0  0  0  0  0  0
   23.5360   10.1620   17.8570 N   0  0  0  0  0  1  0  0  0  0  0  0
   24.7320    8.7880   16.0980 C   0  0  0  0  0  1  0  0  0  0  0  0
   24.1440   10.0620   15.4870 C   0  0  0  0  0  0  0  0  0  0  0  0
   25.2730   10.9300   14.9320 C   0  0  0  0  0  0  0  0  0  0  0  0
   24.8440   11.5370   13.6220 C   0  0  0  0  0  0  0  0  0  0  0  0
   24.4330   11.2690   11.3700 C   0  0  0  0  0  3  0  0  0  0  0  0
   24.0720   12.6020   11.2380 C   0  0  0  0  0  0  0  0  0  0  0  0
   24.1100   13.4260   12.3590 C   0  0  0  0  0  3  0  0  0  0  0  0
   24.5040   12.8760   13.5680 C   0  0  0  0  0  3  0  0  0  0  0  0
   24.8020   10.7840   12.5390 N   0  0  0  0  0  0  0  0  0  0  0  0
   23.6920   13.0970   10.0310 O   0  0  0  0  0  0  0  0  0  0  0  0
   25.5750   11.9720   15.8620 O   0  0  0  0  0  0  0  0  0  0  0  0
   19.9640   10.9610   13.1410 C   0  0  0  0  0  0  0  0  0  0  0  0
   18.7930   10.4740   12.7020 O   0  0  0  0  0  0  0  0  0  0  0  0
   20.8820   11.1140   12.3690 O   0  0  0  0  0  0  0  0  0  0  0  0
   19.5693   10.6079   15.2161 H   0  0  0  0  0  0  0  0  0  0  0  0
   20.4689   13.3376   15.1752 H   0  0  0  0  0  0  0  0  0  0  0  0
   18.6947   15.2665   14.2546 H   0  0  0  0  0  0  0  0  0  0  0  0
   17.9992   11.7239   15.9717 H   0  0  0  0  0  0  0  0  0  0  0  0
   16.4720   13.3860   15.1772 H   0  0  0  0  0  0  0  0  0  0  0  0
   16.6629   16.5646   10.4721 H   0  0  0  0  0  0  0  0  0  0  0  0
   17.3839   14.4508   17.2356 H   0  0  0  0  0  0  0  0  0  0  0  0
   18.3780   12.6530   17.8617 H   0  0  0  0  0  0  0  0  0  0  0  0
   22.2722   11.4747   14.2435 H   0  0  0  0  0  0  0  0  0  0  0  0
   23.7904   11.8598   16.6332 H   0  0  0  0  0  0  0  0  0  0  0  0
   23.4547    9.7934   14.6729 H   0  0  0  0  0  0  0  0  0  0  0  0
   26.1669   10.3089   14.7733 H   0  0  0  0  0  0  0  0  0  0  0  0
   23.4358   14.0494    9.9450 H   0  0  0  0  0  0  0  0  0  0  0  0
   25.4756   11.6292   16.7854 H   0  0  0  0  0  0  0  0  0  0  0  0
   20.7698   10.8795   11.4137 H   0  0  0  0  0  0  0  0  0  0  0  0
  1 33  1  0
  1 18  1  0
  2  1  1  0
  2  4  1  0
  3 11  1  0
  3  5  1  0
  4 16  1  0
  5  4  1  0
  5 15  1  0
  6  3  1  0
  6  2  1  0
  7  9  2  0
  8 14  2  0
  8 11  1  0
 10 12  1  0
 10  7  1  0
 11  9  1  0
 12  8  1  0
 13 10  2  0
 17 19  2  0
 18 17  1  0
 20 17  1  0
 21 20  1  1
 23 22  1  0
 23 20  1  0
 24 23  1  0
 24 32  1  0
 25 24  1  0
 26 30  1  0
 27 26  2  0
 27 28  1  0
 28 29  2  0
 29 25  1  0
 30 25  2  0
 31 27  1  0
 34 33  2  0
 35 33  1  0
  1 36  1  0
  2 37  1  0
  3 38  1  0
  4 39  1  0
  5 40  1  0
 12 41  1  0
 15 42  1  0
 16 43  1  0
 18 44  1  0
 20 45  1  0
 23 46  1  0
 24 47  1  0
 31 48  1  0
 32 49  1  0
 35 50  1  0
M  RAD  7   7   2   9   2  21   3  22   2  26   2  28   2  29   2
M  END
>  <vina_score>  (5) 
-7.2919999999999998

>  <pose_id>  (5) 
5

$$$$
