
     RDKit          3D

 26 27  0  0  1  0  0  0  0  0999 V2000
   14.5150   10.6950   19.7880 C   0  0  0  0  0  2  0  0  0  0  0  0
   14.9930   11.6420   18.7770 C   0  0  0  0  0  0  0  0  0  0  0  0
   15.6330    9.8860   20.2800 N   0  0  0  0  0  0  0  0  0  0  0  0
   15.6250    8.4370   20.0800 C   0  0  0  0  0  1  0  0  0  0  0  0
   16.5870   10.4640   21.1850 C   0  0  0  0  0  0  0  0  0  0  0  0
   16.1610   10.8800   22.4550 C   0  0  0  0  0  3  0  0  0  0  0  0
   17.9440   10.6130   20.8170 C   0  0  0  0  0  0  0  0  0  0  0  0
   17.0640   11.4550   23.3510 C   0  0  0  0  0  3  0  0  0  0  0  0
   18.8480   11.2010   21.7290 C   0  0  0  0  0  0  0  0  0  0  0  0
   18.4220   10.2880   19.4150 C   0  0  0  0  0  2  0  0  0  0  0  0
   18.4010   11.6170   22.9900 C   0  0  0  0  0  3  0  0  0  0  0  0
   20.2280   11.3600   21.3730 N   0  0  0  0  0  0  0  0  0  0  0  0
   19.8850    9.8100   19.3880 C   0  0  0  0  0  3  0  0  0  0  0  0
   20.7550   10.7340   20.1990 C   0  0  0  0  0  0  0  0  0  0  0  0
   21.9610   10.9100   19.8780 O   0  0  0  0  0  0  0  0  0  0  0  0
   20.8460   11.9300   21.9680 H   0  0  0  0  0  0  0  0  0  0  0  0
   19.9800    8.4360   19.8900 N   0  0  0  0  0  0  0  0  0  0  0  0
   19.3450    8.3200   20.6930 H   0  0  0  0  0  0  0  0  0  0  0  0
   19.7140    7.7790   19.1430 H   0  0  0  0  0  0  0  0  0  0  0  0
   15.3990   12.4170   17.9480 C   0  0  0  0  0  0  0  0  0  0  0  0
   15.8690   13.3370   16.9880 C   0  0  0  0  0  0  0  0  0  0  0  0
   16.2680   14.1280   16.1700 C   0  0  0  0  0  0  0  0  0  0  0  0
   16.7550   15.1010   15.1750 C   0  0  2  0  0  0  0  0  0  0  0  0
   15.8780   15.0110   13.9150 C   0  0  0  0  0  1  0  0  0  0  0  0
   18.2140   14.7680   14.8210 C   0  0  0  0  0  1  0  0  0  0  0  0
   16.6710   16.5150   15.7720 C   0  0  0  0  0  1  0  0  0  0  0  0
  1  3  1  0
  2  1  1  0
  3  5  1  0
  4  3  1  0
  5  6  1  0
  6  8  2  0
  7  5  2  0
  7  9  1  0
  9 11  2  0
 10  7  1  0
 11  8  1  0
 12  9  1  0
 12 16  1  0
 13 10  1  0
 13 17  1  0
 13 14  1  0
 14 12  1  0
 15 14  2  0
 17 18  1  0
 19 17  1  0
 20  2  3  0
 21 20  1  0
 22 21  3  0
 23 26  1  1
 23 22  1  0
 24 23  1  0
 25 23  1  0
M  RAD  8   1   3   4   2   6   2   8   2  10   3  11   2  13   2  24   2
M  RAD  2  25   2  26   2
M  END
>  <vina_score>  (1) 
-7.4939999999999998

>  <pose_id>  (1) 
1

$$$$

     RDKit          3D

 26 27  0  0  1  0  0  0  0  0999 V2000
   15.8430   12.9980   14.9370 C   0  0  0  0  0  2  0  0  0  0  0  0
   16.2020   12.5100   16.2720 C   0  0  0  0  0  0  0  0  0  0  0  0
   16.3620   14.3560   14.7490 N   0  0  0  0  0  0  0  0  0  0  0  0
   16.0040   15.4090   15.6990 C   0  0  0  0  0  1  0  0  0  0  0  0
   16.9820   14.7150   13.5040 C   0  0  0  0  0  0  0  0  0  0  0  0
   16.1940   15.2520   12.4750 C   0  0  0  0  0  3  0  0  0  0  0  0
   18.3710   14.5410   13.3050 C   0  0  0  0  0  0  0  0  0  0  0  0
   16.7690   15.5990   11.2520 C   0  0  0  0  0  3  0  0  0  0  0  0
   18.9420   14.8910   12.0620 C   0  0  0  0  0  0  0  0  0  0  0  0
   19.2390   13.8560   14.3440 C   0  0  0  0  0  2  0  0  0  0  0  0
   18.1360   15.4180   11.0430 C   0  0  0  0  0  3  0  0  0  0  0  0
   20.3490   14.7220   11.8410 N   0  0  0  0  0  0  0  0  0  0  0  0
   20.6880   14.3760   14.3370 C   0  0  0  0  0  3  0  0  0  0  0  0
   21.2250   14.4140   12.9300 C   0  0  0  0  0  0  0  0  0  0  0  0
   22.4540   14.2330   12.7180 O   0  0  0  0  0  0  0  0  0  0  0  0
   20.7330   14.8230   10.8910 H   0  0  0  0  0  0  0  0  0  0  0  0
   20.7540   15.7040   14.9530 N   0  0  0  0  0  0  0  0  0  0  0  0
   19.8210   15.9680   15.2990 H   0  0  0  0  0  0  0  0  0  0  0  0
   21.4200   15.6850   15.7380 H   0  0  0  0  0  0  0  0  0  0  0  0
   16.5050   12.1200   17.3710 C   0  0  0  0  0  0  0  0  0  0  0  0
   16.8650   11.6490   18.6510 C   0  0  0  0  0  0  0  0  0  0  0  0
   17.1740   11.2410   19.7420 C   0  0  0  0  0  0  0  0  0  0  0  0
   17.5540   10.7360   21.0740 C   0  0  2  0  0  0  0  0  0  0  0  0
   16.2830   10.5340   21.9160 C   0  0  0  0  0  1  0  0  0  0  0  0
   18.4750   11.7620   21.7550 C   0  0  0  0  0  1  0  0  0  0  0  0
   18.2920    9.3970   20.9110 C   0  0  0  0  0  1  0  0  0  0  0  0
  1  2  1  0
  2 20  3  0
  3  1  1  0
  3  4  1  0
  5  3  1  0
  6  5  1  0
  7  5  2  0
  7 10  1  0
  8  6  2  0
  9  7  1  0
 11  8  1  0
 11  9  2  0
 12  9  1  0
 12 14  1  0
 13 10  1  0
 13 17  1  0
 14 13  1  0
 15 14  2  0
 16 12  1  0
 17 18  1  0
 17 19  1  0
 20 21  1  0
 21 22  3  0
 22 23  1  0
 23 25  1  1
 23 24  1  0
 26 23  1  0
M  RAD  8   1   3   4   2   6   2   8   2  10   3  11   2  13   2  24   2
M  RAD  2  25   2  26   2
M  END
>  <vina_score>  (2) 
-6.9450000000000003

>  <pose_id>  (2) 
2

$$$$

     RDKit          3D

 26 27  0  0  1  0  0  0  0  0999 V2000
   20.8240   10.4950   20.8690 C   0  0  0  0  0  2  0  0  0  0  0  0
   21.7440   10.4910   19.7280 C   0  0  0  0  0  0  0  0  0  0  0  0
   19.5650   11.1440   20.4900 N   0  0  0  0  0  0  0  0  0  0  0  0
   19.5200   12.0130   19.3150 C   0  0  0  0  0  1  0  0  0  0  0  0
   18.4620   11.1510   21.4110 C   0  0  0  0  0  0  0  0  0  0  0  0
   18.4720   12.0530   22.4850 C   0  0  0  0  0  3  0  0  0  0  0  0
   17.3700   10.2690   21.2460 C   0  0  0  0  0  0  0  0  0  0  0  0
   17.4190   12.0740   23.4000 C   0  0  0  0  0  3  0  0  0  0  0  0
   16.3120   10.2950   22.1810 C   0  0  0  0  0  0  0  0  0  0  0  0
   17.3730    9.1990   20.1710 C   0  0  0  0  0  2  0  0  0  0  0  0
   16.3440   11.1980   23.2520 C   0  0  0  0  0  3  0  0  0  0  0  0
   15.1950    9.4070   22.0300 N   0  0  0  0  0  0  0  0  0  0  0  0
   15.9580    8.8660   19.6670 C   0  0  0  0  0  3  0  0  0  0  0  0
   15.0230    8.6500   20.8280 C   0  0  0  0  0  0  0  0  0  0  0  0
   14.0570    7.8480   20.7210 O   0  0  0  0  0  0  0  0  0  0  0  0
   14.5100    9.3150   22.7940 H   0  0  0  0  0  0  0  0  0  0  0  0
   15.4640    9.9360   18.7960 N   0  0  0  0  0  0  0  0  0  0  0  0
   14.4440    9.8460   18.6860 H   0  0  0  0  0  0  0  0  0  0  0  0
   15.6850   10.8500   19.2160 H   0  0  0  0  0  0  0  0  0  0  0  0
   22.4890   10.4920   18.7810 C   0  0  0  0  0  0  0  0  0  0  0  0
   23.3730   10.4840   17.6820 C   0  0  0  0  0  0  0  0  0  0  0  0
   24.1320   10.4750   16.7460 C   0  0  0  0  0  0  0  0  0  0  0  0
   25.0570   10.4680   15.5970 C   0  0  2  0  0  0  0  0  0  0  0  0
   25.0870    9.0570   14.9860 C   0  0  0  0  0  1  0  0  0  0  0  0
   26.4630   10.8580   16.0830 C   0  0  0  0  0  1  0  0  0  0  0  0
   24.5640   11.4810   14.5510 C   0  0  0  0  0  1  0  0  0  0  0  0
  2  1  1  0
  3  1  1  0
  3  5  1  0
  4  3  1  0
  5  6  1  0
  6  8  2  0
  7  5  2  0
  7  9  1  0
  9 11  2  0
 10  7  1  0
 11  8  1  0
 12  9  1  0
 12 16  1  0
 13 17  1  0
 13 10  1  0
 13 14  1  0
 14 12  1  0
 15 14  2  0
 17 19  1  0
 18 17  1  0
 20  2  3  0
 21 20  1  0
 22 21  3  0
 23 25  1  1
 23 22  1  0
 24 23  1  0
 26 23  1  0
M  RAD  8   1   3   4   2   6   2   8   2  10   3  11   2  13   2  24   2
M  RAD  2  25   2  26   2
M  END
>  <vina_score>  (3) 
-6.7409999999999997

>  <pose_id>  (3) 
3

$$$$

     RDKit          3D

 26 27  0  0  1  0  0  0  0  0999 V2000
   16.7330   14.1560   15.2190 C   0  0  0  0  0  2  0  0  0  0  0  0
   17.4220   13.4110   16.2770 C   0  0  0  0  0  0  0  0  0  0  0  0
   16.9810   13.5210   13.9220 N   0  0  0  0  0  0  0  0  0  0  0  0
   16.8970   12.0660   13.7970 C   0  0  0  0  0  1  0  0  0  0  0  0
   17.5670   14.2840   12.8560 C   0  0  0  0  0  0  0  0  0  0  0  0
   16.7310   14.8980   11.9120 C   0  0  0  0  0  3  0  0  0  0  0  0
   18.9700   14.4280   12.7500 C   0  0  0  0  0  0  0  0  0  0  0  0
   17.2750   15.6370   10.8600 C   0  0  0  0  0  3  0  0  0  0  0  0
   19.5100   15.1730   11.6790 C   0  0  0  0  0  0  0  0  0  0  0  0
   19.9130   13.6860   13.6770 C   0  0  0  0  0  2  0  0  0  0  0  0
   18.6580   15.7730   10.7410 C   0  0  0  0  0  3  0  0  0  0  0  0
   20.9300   15.3310   11.5550 N   0  0  0  0  0  0  0  0  0  0  0  0
   21.2240   14.4540   13.9220 C   0  0  0  0  0  3  0  0  0  0  0  0
   21.8030   14.9360   12.6180 C   0  0  0  0  0  0  0  0  0  0  0  0
   23.0510   15.0470   12.4830 O   0  0  0  0  0  0  0  0  0  0  0  0
   21.3260   15.7330   10.6930 H   0  0  0  0  0  0  0  0  0  0  0  0
   20.9910   15.5780   14.8330 N   0  0  0  0  0  0  0  0  0  0  0  0
   20.8890   15.2250   15.7950 H   0  0  0  0  0  0  0  0  0  0  0  0
   21.7880   16.2280   14.7870 H   0  0  0  0  0  0  0  0  0  0  0  0
   17.9910   12.7890   17.1370 C   0  0  0  0  0  0  0  0  0  0  0  0
   18.6510   12.0700   18.1560 C   0  0  0  0  0  0  0  0  0  0  0  0
   19.2130   11.4600   19.0300 C   0  0  0  0  0  0  0  0  0  0  0  0
   19.9070   10.7150   20.0970 C   0  0  2  0  0  0  0  0  0  0  0  0
   19.5290    9.2270   19.9970 C   0  0  0  0  0  1  0  0  0  0  0  0
   19.4730   11.2740   21.4630 C   0  0  0  0  0  1  0  0  0  0  0  0
   21.4250   10.8820   19.9200 C   0  0  0  0  0  1  0  0  0  0  0  0
  1  2  1  0
  2 20  3  0
  3  1  1  0
  4  3  1  0
  5  3  1  0
  6  5  1  0
  7  5  2  0
  7 10  1  0
  8  6  2  0
  9  7  1  0
 10 13  1  0
 11  8  1  0
 11  9  2  0
 12  9  1  0
 12 14  1  0
 13 17  1  0
 14 13  1  0
 15 14  2  0
 16 12  1  0
 17 18  1  0
 19 17  1  0
 20 21  1  0
 21 22  3  0
 22 23  1  0
 23 25  1  1
 24 23  1  0
 26 23  1  0
M  RAD  8   1   3   4   2   6   2   8   2  10   3  11   2  13   2  24   2
M  RAD  2  25   2  26   2
M  END
>  <vina_score>  (4) 
-6.6980000000000004

>  <pose_id>  (4) 
4

$$$$

     RDKit          3D

 26 27  0  0  1  0  0  0  0  0999 V2000
   24.1340   10.5810   16.1850 C   0  0  0  0  0  2  0  0  0  0  0  0
   23.0390   10.5260   17.1570 C   0  0  0  0  0  0  0  0  0  0  0  0
   23.6050   10.4150   14.8280 N   0  0  0  0  0  0  0  0  0  0  0  0
   23.5420    9.0800   14.2320 C   0  0  0  0  0  1  0  0  0  0  0  0
   23.4100   11.5670   13.9930 C   0  0  0  0  0  0  0  0  0  0  0  0
   24.5250   12.1890   13.4130 C   0  0  0  0  0  3  0  0  0  0  0  0
   22.1150   12.0760   13.7450 C   0  0  0  0  0  0  0  0  0  0  0  0
   24.3660   13.3160   12.6060 C   0  0  0  0  0  3  0  0  0  0  0  0
   21.9650   13.2200   12.9310 C   0  0  0  0  0  0  0  0  0  0  0  0
   20.8950   11.5080   14.4440 C   0  0  0  0  0  2  0  0  0  0  0  0
   23.0930   13.8320   12.3670 C   0  0  0  0  0  3  0  0  0  0  0  0
   20.6590   13.7510   12.6670 N   0  0  0  0  0  0  0  0  0  0  0  0
   19.6190   11.6240   13.5910 C   0  0  0  0  0  3  0  0  0  0  0  0
   19.4870   13.0150   13.0290 C   0  0  0  0  0  0  0  0  0  0  0  0
   18.3450   13.5080   12.8240 O   0  0  0  0  0  0  0  0  0  0  0  0
   20.5640   14.6700   12.2120 H   0  0  0  0  0  0  0  0  0  0  0  0
   19.6370   10.6300   12.5140 N   0  0  0  0  0  0  0  0  0  0  0  0
   19.4880    9.6910   12.9110 H   0  0  0  0  0  0  0  0  0  0  0  0
   18.8880   10.8410   11.8390 H   0  0  0  0  0  0  0  0  0  0  0  0
   22.1290   10.4820   17.9450 C   0  0  0  0  0  0  0  0  0  0  0  0
   21.0630   10.4460   18.8690 C   0  0  0  0  0  0  0  0  0  0  0  0
   20.1530   10.4220   19.6580 C   0  0  0  0  0  0  0  0  0  0  0  0
   19.0370   10.3860   20.6220 C   0  0  2  0  0  0  0  0  0  0  0  0
   17.9180   11.3190   20.1310 C   0  0  0  0  0  1  0  0  0  0  0  0
   19.5460   10.8560   21.9950 C   0  0  0  0  0  1  0  0  0  0  0  0
   18.5100    8.9450   20.7240 C   0  0  0  0  0  1  0  0  0  0  0  0
  1  2  1  0
  2 20  3  0
  3  1  1  0
  4  3  1  0
  5  3  1  0
  6  5  1  0
  7  5  2  0
  7 10  1  0
  8  6  2  0
  9  7  1  0
 11  8  1  0
 11  9  2  0
 12  9  1  0
 12 14  1  0
 13 17  1  0
 13 10  1  0
 14 13  1  0
 15 14  2  0
 16 12  1  0
 17 18  1  0
 19 17  1  0
 20 21  1  0
 21 22  3  0
 22 23  1  0
 23 26  1  1
 23 25  1  0
 24 23  1  0
M  RAD  8   1   3   4   2   6   2   8   2  10   3  11   2  13   2  24   2
M  RAD  2  25   2  26   2
M  END
>  <vina_score>  (5) 
-6.5609999999999999

>  <pose_id>  (5) 
5

$$$$
