
     RDKit          3D

 25 26  0  0  0  0  0  0  0  0999 V2000
   15.7050   10.0170   20.4330 N   0  0  0  0  0  0  0  0  0  0  0  0
   15.7580    8.5860   20.1120 C   0  0  0  0  0  2  0  0  0  0  0  0
   14.3960    7.9310   20.3510 C   0  0  0  0  0  2  0  0  0  0  0  0
   13.9740    8.0520   21.8120 C   0  0  0  0  0  1  0  0  0  0  0  0
   14.7880   10.9110   19.7150 C   0  0  0  0  0  2  0  0  0  0  0  0
   15.4550   11.4590   18.4920 C   0  0  0  0  0  3  0  0  0  0  0  0
   15.2010   12.6960   18.0640 C   0  0  0  0  0  3  0  0  0  0  0  0
   15.9300   13.2510   16.9600 C   0  0  0  0  0  0  0  0  0  0  0  0
   16.5600   13.7190   16.0440 C   0  0  0  0  0  0  0  0  0  0  0  0
   17.3280   14.2760   14.9150 C   0  0  2  0  0  0  0  0  0  0  0  0
   16.8420   13.6200   13.6120 C   0  0  0  0  0  1  0  0  0  0  0  0
   18.8210   13.9760   15.1280 C   0  0  0  0  0  1  0  0  0  0  0  0
   17.1030   15.7960   14.8540 C   0  0  0  0  0  1  0  0  0  0  0  0
   16.6580   10.5760   21.3530 C   0  0  0  0  0  0  0  0  0  0  0  0
   16.2070   11.0410   22.5970 C   0  0  0  0  0  3  0  0  0  0  0  0
   18.0350   10.6510   21.0340 C   0  0  0  0  0  0  0  0  0  0  0  0
   17.1030   11.5740   23.5220 C   0  0  0  0  0  3  0  0  0  0  0  0
   18.9350   11.1860   21.9830 C   0  0  0  0  0  0  0  0  0  0  0  0
   18.5940   10.0320   19.7680 C   0  0  0  0  0  2  0  0  0  0  0  0
   18.4620   11.6460   23.2180 C   0  0  0  0  0  3  0  0  0  0  0  0
   20.3360   11.2640   21.6820 N   0  0  0  0  0  0  0  0  0  0  0  0
   19.8200   10.7900   19.2490 C   0  0  0  0  0  2  0  0  0  0  0  0
   20.8070   11.0130   20.3540 C   0  0  0  0  0  0  0  0  0  0  0  0
   22.0410   11.0410   20.1050 O   0  0  0  0  0  0  0  0  0  0  0  0
   21.0080   11.5010   22.4260 H   0  0  0  0  0  0  0  0  0  0  0  0
  1 14  1  0
  2  3  1  0
  2  1  1  0
  3  4  1  0
  5  1  1  0
  6  5  1  0
  7  6  2  0
  8  7  1  0
  9  8  3  0
 10 12  1  1
 10  9  1  0
 11 10  1  0
 13 10  1  0
 14 15  1  0
 15 17  2  0
 16 14  2  0
 16 18  1  0
 18 20  2  0
 19 16  1  0
 20 17  1  0
 21 18  1  0
 21 25  1  0
 22 19  1  0
 22 23  1  0
 23 21  1  0
 24 23  2  0
M  RAD  8   2   3   3   3   4   2   5   3   6   2   7   2  11   2  12   2
M  RAD  6  13   2  15   2  17   2  19   3  20   2  22   3
M  END
>  <vina_score>  (1) 
-7.032

>  <pose_id>  (1) 
1

$$$$

     RDKit          3D

 25 26  0  0  0  0  0  0  0  0999 V2000
   15.8680   15.4170   12.9690 N   0  0  0  0  0  0  0  0  0  0  0  0
   15.9970   16.3170   14.1220 C   0  0  0  0  0  2  0  0  0  0  0  0
   15.1150   15.8390   15.2780 C   0  0  0  0  0  2  0  0  0  0  0  0
   15.9600   15.3260   16.4410 C   0  0  0  0  0  1  0  0  0  0  0  0
   14.9970   14.2370   13.0360 C   0  0  0  0  0  2  0  0  0  0  0  0
   15.8210   12.9870   13.0040 C   0  0  0  0  0  3  0  0  0  0  0  0
   16.2440   12.4110   14.1310 C   0  0  0  0  0  3  0  0  0  0  0  0
   16.9350   11.1540   14.0930 C   0  0  0  0  0  0  0  0  0  0  0  0
   17.4960   10.0880   14.0570 C   0  0  0  0  0  0  0  0  0  0  0  0
   18.1670    8.7750   14.0100 C   0  0  2  0  0  0  0  0  0  0  0  0
   17.3430    7.8270   13.1240 C   0  0  0  0  0  1  0  0  0  0  0  0
   18.2610    8.2090   15.4370 C   0  0  0  0  0  1  0  0  0  0  0  0
   19.5770    8.9510   13.4220 C   0  0  0  0  0  1  0  0  0  0  0  0
   16.7070   15.6090   11.8180 C   0  0  0  0  0  0  0  0  0  0  0  0
   16.1280   16.0610   10.6240 C   0  0  0  0  0  3  0  0  0  0  0  0
   18.1000   15.3670   11.8730 C   0  0  0  0  0  0  0  0  0  0  0  0
   16.9120   16.2760    9.4920 C   0  0  0  0  0  3  0  0  0  0  0  0
   18.8870   15.5960   10.7210 C   0  0  0  0  0  0  0  0  0  0  0  0
   18.7980   15.0200   13.1740 C   0  0  0  0  0  2  0  0  0  0  0  0
   18.2860   16.0450    9.5390 C   0  0  0  0  0  3  0  0  0  0  0  0
   20.3030   15.3640   10.7590 N   0  0  0  0  0  0  0  0  0  0  0  0
   20.0230   14.1270   12.9510 C   0  0  0  0  0  2  0  0  0  0  0  0
   20.8990   14.6960   11.8760 C   0  0  0  0  0  0  0  0  0  0  0  0
   22.1460   14.5330   11.9220 O   0  0  0  0  0  0  0  0  0  0  0  0
   20.8950   15.6810    9.9780 H   0  0  0  0  0  0  0  0  0  0  0  0
  1  5  1  0
  1  2  1  0
  2  3  1  0
  3  4  1  0
  6  5  1  0
  6  7  2  0
  8  7  1  0
  9  8  3  0
 10  9  1  0
 10 12  1  1
 11 10  1  0
 13 10  1  0
 14 16  2  0
 14  1  1  0
 15 14  1  0
 16 19  1  0
 17 20  1  0
 17 15  2  0
 18 21  1  0
 18 16  1  0
 20 18  2  0
 21 23  1  0
 22 19  1  0
 23 24  2  0
 23 22  1  0
 25 21  1  0
M  RAD  8   2   3   3   3   4   2   5   3   6   2   7   2  11   2  12   2
M  RAD  6  13   2  15   2  17   2  19   3  20   2  22   3
M  END
>  <vina_score>  (2) 
-6.9560000000000004

>  <pose_id>  (2) 
2

$$$$

     RDKit          3D

 25 26  0  0  0  0  0  0  0  0999 V2000
   16.7430   14.3140   14.8360 N   0  0  0  0  0  0  0  0  0  0  0  0
   16.5810   15.3190   15.8950 C   0  0  0  0  0  2  0  0  0  0  0  0
   15.1060   15.6920   16.0600 C   0  0  0  0  0  2  0  0  0  0  0  0
   14.6290   15.4350   17.4860 C   0  0  0  0  0  1  0  0  0  0  0  0
   16.5130   12.8910   15.1160 C   0  0  0  0  0  2  0  0  0  0  0  0
   16.9840   12.5550   16.4970 C   0  0  0  0  0  3  0  0  0  0  0  0
   16.1650   11.9960   17.3880 C   0  0  0  0  0  3  0  0  0  0  0  0
   16.6570   11.5750   18.6690 C   0  0  0  0  0  0  0  0  0  0  0  0
   17.0800   11.2040   19.7350 C   0  0  0  0  0  0  0  0  0  0  0  0
   17.6130   10.7630   21.0370 C   0  0  2  0  0  0  0  0  0  0  0  0
   18.4410   11.9040   21.6490 C   0  0  0  0  0  1  0  0  0  0  0  0
   18.5020    9.5270   20.8220 C   0  0  0  0  0  1  0  0  0  0  0  0
   16.4400   10.4090   21.9670 C   0  0  0  0  0  1  0  0  0  0  0  0
   17.2700   14.7050   13.5580 C   0  0  0  0  0  0  0  0  0  0  0  0
   16.3760   15.0050   12.5200 C   0  0  0  0  0  3  0  0  0  0  0  0
   18.6630   14.8070   13.3340 C   0  0  0  0  0  0  0  0  0  0  0  0
   16.8480   15.4050   11.2700 C   0  0  0  0  0  3  0  0  0  0  0  0
   19.1300   15.2210   12.0660 C   0  0  0  0  0  0  0  0  0  0  0  0
   19.6650   14.6370   14.4590 C   0  0  0  0  0  2  0  0  0  0  0  0
   18.2190   15.5140   11.0430 C   0  0  0  0  0  3  0  0  0  0  0  0
   20.5400   15.3390   11.8210 N   0  0  0  0  0  0  0  0  0  0  0  0
   20.9980   14.0680   13.9620 C   0  0  0  0  0  2  0  0  0  0  0  0
   21.4850   14.8330   12.7690 C   0  0  0  0  0  0  0  0  0  0  0  0
   22.7190   14.9760   12.5690 O   0  0  0  0  0  0  0  0  0  0  0  0
   20.8740   15.7910   10.9580 H   0  0  0  0  0  0  0  0  0  0  0  0
  1  5  1  0
  1  2  1  0
  2  3  1  0
  3  4  1  0
  5  6  1  0
  6  7  2  0
  7  8  1  0
  8  9  3  0
  9 10  1  0
 10 11  1  1
 10 13  1  0
 12 10  1  0
 14  1  1  0
 15 14  1  0
 16 14  2  0
 16 19  1  0
 17 15  2  0
 18 16  1  0
 20 17  1  0
 20 18  2  0
 21 18  1  0
 21 23  1  0
 22 19  1  0
 23 22  1  0
 24 23  2  0
 25 21  1  0
M  RAD  8   2   3   3   3   4   2   5   3   6   2   7   2  11   2  12   2
M  RAD  6  13   2  15   2  17   2  19   3  20   2  22   3
M  END
>  <vina_score>  (3) 
-6.9160000000000004

>  <pose_id>  (3) 
3

$$$$

     RDKit          3D

 25 26  0  0  0  0  0  0  0  0999 V2000
   18.3650    9.3830   18.6120 N   0  0  0  0  0  0  0  0  0  0  0  0
   18.0900    9.9170   17.2720 C   0  0  0  0  0  2  0  0  0  0  0  0
   17.5470   11.3450   17.3640 C   0  0  0  0  0  2  0  0  0  0  0  0
   18.6420   12.3270   17.7690 C   0  0  0  0  0  1  0  0  0  0  0  0
   19.6810    8.8180   18.9350 C   0  0  0  0  0  2  0  0  0  0  0  0
   20.6960    9.2730   17.9320 C   0  0  0  0  0  3  0  0  0  0  0  0
   21.6870   10.0960   18.2780 C   0  0  0  0  0  3  0  0  0  0  0  0
   22.7170   10.4340   17.3380 C   0  0  0  0  0  0  0  0  0  0  0  0
   23.5910   10.6980   16.5520 C   0  0  0  0  0  0  0  0  0  0  0  0
   24.6480   11.0300   15.5780 C   0  0  2  0  0  0  0  0  0  0  0  0
   24.2520   12.3150   14.8330 C   0  0  0  0  0  1  0  0  0  0  0  0
   24.7930    9.8690   14.5800 C   0  0  0  0  0  1  0  0  0  0  0  0
   25.9740   11.2450   16.3270 C   0  0  0  0  0  1  0  0  0  0  0  0
   17.2980    9.2780   19.5690 C   0  0  0  0  0  0  0  0  0  0  0  0
   16.2290    8.4120   19.3000 C   0  0  0  0  0  3  0  0  0  0  0  0
   17.3150   10.0160   20.7760 C   0  0  0  0  0  0  0  0  0  0  0  0
   15.1830    8.2710   20.2120 C   0  0  0  0  0  3  0  0  0  0  0  0
   16.2540    9.8590   21.6970 C   0  0  0  0  0  0  0  0  0  0  0  0
   18.5140   10.8520   21.1820 C   0  0  0  0  0  2  0  0  0  0  0  0
   15.1960    8.9900   21.4060 C   0  0  0  0  0  3  0  0  0  0  0  0
   16.2580   10.5930   22.9310 N   0  0  0  0  0  0  0  0  0  0  0  0
   18.1110   12.0640   22.0300 C   0  0  0  0  0  2  0  0  0  0  0  0
   17.2030   11.6450   23.1460 C   0  0  0  0  0  0  0  0  0  0  0  0
   17.2280   12.2580   24.2460 O   0  0  0  0  0  0  0  0  0  0  0  0
   15.5750   10.3600   23.6660 H   0  0  0  0  0  0  0  0  0  0  0  0
  1  5  1  0
  1 14  1  0
  2  3  1  0
  2  1  1  0
  3  4  1  0
  6  7  2  0
  6  5  1  0
  8  7  1  0
  9  8  3  0
 10 13  1  1
 10  9  1  0
 11 10  1  0
 12 10  1  0
 14 16  2  0
 15 14  1  0
 15 17  2  0
 16 19  1  0
 16 18  1  0
 17 20  1  0
 18 21  1  0
 19 22  1  0
 20 18  2  0
 21 23  1  0
 21 25  1  0
 22 23  1  0
 23 24  2  0
M  RAD  8   2   3   3   3   4   2   5   3   6   2   7   2  11   2  12   2
M  RAD  6  13   2  15   2  17   2  19   3  20   2  22   3
M  END
>  <vina_score>  (4) 
-6.8730000000000002

>  <pose_id>  (4) 
4

$$$$

     RDKit          3D

 25 26  0  0  0  0  0  0  0  0999 V2000
   17.3030   14.0410   13.8740 N   0  0  0  0  0  0  0  0  0  0  0  0
   17.4150   14.8760   15.0760 C   0  0  0  0  0  2  0  0  0  0  0  0
   16.2110   14.6590   15.9960 C   0  0  0  0  0  2  0  0  0  0  0  0
   15.1150   15.6840   15.7200 C   0  0  0  0  0  1  0  0  0  0  0  0
   17.6000   12.6050   13.9320 C   0  0  0  0  0  2  0  0  0  0  0  0
   19.0770   12.3890   14.0450 C   0  0  0  0  0  3  0  0  0  0  0  0
   19.7700   11.8290   13.0530 C   0  0  0  0  0  3  0  0  0  0  0  0
   21.2000   11.7310   13.1260 C   0  0  0  0  0  0  0  0  0  0  0  0
   22.4030   11.6700   13.1830 C   0  0  0  0  0  0  0  0  0  0  0  0
   23.8750   11.6140   13.2550 C   0  0  2  0  0  0  0  0  0  0  0  0
   24.3760   12.7920   14.1070 C   0  0  0  0  0  1  0  0  0  0  0  0
   24.4500   11.7140   11.8320 C   0  0  0  0  0  1  0  0  0  0  0  0
   24.2970   10.2830   13.8990 C   0  0  0  0  0  1  0  0  0  0  0  0
   17.0420   14.6570   12.6020 C   0  0  0  0  0  0  0  0  0  0  0  0
   15.7150   14.7780   12.1670 C   0  0  0  0  0  3  0  0  0  0  0  0
   18.0920   15.1540   11.7930 C   0  0  0  0  0  0  0  0  0  0  0  0
   15.4200   15.3850   10.9460 C   0  0  0  0  0  3  0  0  0  0  0  0
   17.7810   15.7740   10.5620 C   0  0  0  0  0  0  0  0  0  0  0  0
   19.5280   15.1800   12.2810 C   0  0  0  0  0  2  0  0  0  0  0  0
   16.4490   15.8820   10.1470 C   0  0  0  0  0  3  0  0  0  0  0  0
   18.8320   16.2910    9.7310 N   0  0  0  0  0  0  0  0  0  0  0  0
   20.5290   15.0370   11.1290 C   0  0  0  0  0  2  0  0  0  0  0  0
   20.2000   15.9930   10.0240 C   0  0  0  0  0  0  0  0  0  0  0  0
   21.1190   16.4840    9.3170 O   0  0  0  0  0  0  0  0  0  0  0  0
   18.5990   16.8810    8.9190 H   0  0  0  0  0  0  0  0  0  0  0  0
  1  5  1  0
  1  2  1  0
  2  3  1  0
  4  3  1  0
  5  6  1  0
  7  8  1  0
  7  6  2  0
  8  9  3  0
  9 10  1  0
 10 13  1  1
 10 11  1  0
 12 10  1  0
 14  1  1  0
 15 14  1  0
 16 19  1  0
 16 14  2  0
 17 15  2  0
 18 16  1  0
 20 18  2  0
 20 17  1  0
 21 23  1  0
 21 18  1  0
 22 19  1  0
 23 22  1  0
 24 23  2  0
 25 21  1  0
M  RAD  8   2   3   3   3   4   2   5   3   6   2   7   2  11   2  12   2
M  RAD  6  13   2  15   2  17   2  19   3  20   2  22   3
M  END
>  <vina_score>  (5) 
-6.8339999999999996

>  <pose_id>  (5) 
5

$$$$
