
     RDKit          3D

 22 22  0  0  0  0  0  0  0  0999 V2000
   22.1710   15.5260   11.5650 N   0  0  0  0  0  0  0  0  0  0  0  0
   22.2930   16.2590   12.2790 H   0  0  0  0  0  0  0  0  0  0  0  0
   22.9580   14.3240   11.6750 C   0  0  0  0  0  0  0  0  0  0  0  0
   23.6980   12.4230   13.0240 C   0  0  0  0  0  0  0  0  0  0  0  0
   24.4950   11.9880   11.9570 C   0  0  0  0  0  3  0  0  0  0  0  0
   22.9470   13.6050   12.8830 C   0  0  0  0  0  3  0  0  0  0  0  0
   24.5120   12.6950   10.7530 C   0  0  0  0  0  3  0  0  0  0  0  0
   23.7470   13.8540   10.6080 C   0  0  0  0  0  3  0  0  0  0  0  0
   23.7150   11.6880   14.2600 N   0  0  0  0  0  0  0  0  0  0  0  0
   24.6810   11.8880   15.3030 C   0  0  0  0  0  0  0  0  0  0  0  0
   25.4330   12.8990   15.2990 O   0  0  0  0  0  0  0  0  0  0  0  0
   24.7330   10.9430   16.4590 C   0  0  0  0  0  1  0  0  0  0  0  0
   22.9880   10.9720   14.4060 H   0  0  0  0  0  0  0  0  0  0  0  0
   21.2060   15.7570   10.4870 C   0  0  0  0  0  2  0  0  0  0  0  0
   19.8080   15.4570   10.9410 C   0  0  0  0  0  3  0  0  0  0  0  0
   19.5730   14.8510   12.1060 C   0  0  0  0  0  3  0  0  0  0  0  0
   18.2280   14.5650   12.5250 C   0  0  0  0  0  0  0  0  0  0  0  0
   17.1000   14.3260   12.8760 C   0  0  0  0  0  0  0  0  0  0  0  0
   15.7190   14.0340   13.3030 C   0  0  1  0  0  0  0  0  0  0  0  0
   15.6540   12.5950   13.8380 C   0  0  0  0  0  1  0  0  0  0  0  0
   15.3180   15.0230   14.4110 C   0  0  0  0  0  1  0  0  0  0  0  0
   14.7770   14.1880   12.0970 C   0  0  0  0  0  1  0  0  0  0  0  0
  1  3  1  0
  1  2  1  0
  3  6  2  0
  4  9  1  0
  5  4  2  0
  6  4  1  0
  7  5  1  0
  8  7  2  0
  8  3  1  0
  9 13  1  0
  9 10  1  0
 10 12  1  0
 11 10  2  0
 14 15  1  0
 14  1  1  0
 15 16  2  0
 16 17  1  0
 17 18  3  0
 18 19  1  0
 19 20  1  1
 19 21  1  0
 22 19  1  0
M  RAD  8   5   2   6   2   7   2   8   2  12   2  14   3  15   2  16   2
M  RAD  3  20   2  21   2  22   2
M  END
>  <vina_score>  (1) 
-6.5979999999999999

>  <pose_id>  (1) 
1

$$$$

     RDKit          3D

 22 22  0  0  0  0  0  0  0  0999 V2000
   15.3050    9.7050   20.6270 N   0  0  0  0  0  0  0  0  0  0  0  0
   15.4090    8.7480   20.2610 H   0  0  0  0  0  0  0  0  0  0  0  0
   16.3840   10.2650   21.4010 C   0  0  0  0  0  0  0  0  0  0  0  0
   18.7880   10.5800   21.7180 C   0  0  0  0  0  0  0  0  0  0  0  0
   18.5290   11.3090   22.8860 C   0  0  0  0  0  3  0  0  0  0  0  0
   17.7100   10.0440   20.9910 C   0  0  0  0  0  3  0  0  0  0  0  0
   17.2150   11.5350   23.3020 C   0  0  0  0  0  3  0  0  0  0  0  0
   16.1460   11.0220   22.5640 C   0  0  0  0  0  3  0  0  0  0  0  0
   20.1510   10.3450   21.3240 N   0  0  0  0  0  0  0  0  0  0  0  0
   20.8750   11.1720   20.4000 C   0  0  0  0  0  0  0  0  0  0  0  0
   20.4330   12.3040   20.0650 O   0  0  0  0  0  0  0  0  0  0  0  0
   22.2160   10.7350   19.9050 C   0  0  0  0  0  1  0  0  0  0  0  0
   20.6370    9.5320   21.7280 H   0  0  0  0  0  0  0  0  0  0  0  0
   14.0660   10.4310   20.3350 C   0  0  0  0  0  2  0  0  0  0  0  0
   14.2430   11.3510   19.1630 C   0  0  0  0  0  3  0  0  0  0  0  0
   15.4560   11.7190   18.7490 C   0  0  0  0  0  3  0  0  0  0  0  0
   15.6090   12.6050   17.6270 C   0  0  0  0  0  0  0  0  0  0  0  0
   15.7370   13.3480   16.6860 C   0  0  0  0  0  0  0  0  0  0  0  0
   15.8960   14.2560   15.5350 C   0  0  1  0  0  0  0  0  0  0  0  0
   15.3980   13.5480   14.2650 C   0  0  0  0  0  1  0  0  0  0  0  0
   15.0690   15.5280   15.7830 C   0  0  0  0  0  1  0  0  0  0  0  0
   17.3830   14.6180   15.3840 C   0  0  0  0  0  1  0  0  0  0  0  0
  1  3  1  0
  2  1  1  0
  3  8  1  0
  4  5  2  0
  5  7  1  0
  6  3  2  0
  6  4  1  0
  8  7  2  0
  9  4  1  0
  9 13  1  0
 10  9  1  0
 11 10  2  0
 12 10  1  0
 14  1  1  0
 15 14  1  0
 16 15  2  0
 17 16  1  0
 18 17  3  0
 19 21  1  1
 19 18  1  0
 20 19  1  0
 22 19  1  0
M  RAD  8   5   2   6   2   7   2   8   2  12   2  14   3  15   2  16   2
M  RAD  3  20   2  21   2  22   2
M  END
>  <vina_score>  (2) 
-6.5419999999999998

>  <pose_id>  (2) 
2

$$$$

     RDKit          3D

 22 22  0  0  0  0  0  0  0  0999 V2000
   20.1580   11.5190   21.3260 N   0  0  0  0  0  0  0  0  0  0  0  0
   20.4930   12.4890   21.2350 H   0  0  0  0  0  0  0  0  0  0  0  0
   18.8260   11.2980   21.8320 C   0  0  0  0  0  0  0  0  0  0  0  0
   16.7180   10.0660   21.7090 C   0  0  0  0  0  0  0  0  0  0  0  0
   16.2130   10.8440   22.7590 C   0  0  0  0  0  3  0  0  0  0  0  0
   18.0200   10.3130   21.2370 C   0  0  0  0  0  3  0  0  0  0  0  0
   17.0060   11.8250   23.3570 C   0  0  0  0  0  3  0  0  0  0  0  0
   18.3070   12.0510   22.9020 C   0  0  0  0  0  3  0  0  0  0  0  0
   15.8730    9.0760   21.0970 N   0  0  0  0  0  0  0  0  0  0  0  0
   15.0800    9.3100   19.9230 C   0  0  0  0  0  0  0  0  0  0  0  0
   15.2690   10.3330   19.2110 O   0  0  0  0  0  0  0  0  0  0  0  0
   14.0880    8.2830   19.4800 C   0  0  0  0  0  1  0  0  0  0  0  0
   15.8330    8.1410   21.5290 H   0  0  0  0  0  0  0  0  0  0  0  0
   21.0570   10.4310   20.9340 C   0  0  0  0  0  2  0  0  0  0  0  0
   21.9050   10.8280   19.7620 C   0  0  0  0  0  3  0  0  0  0  0  0
   22.3160    9.9270   18.8680 C   0  0  0  0  0  3  0  0  0  0  0  0
   23.1310   10.3220   17.7520 C   0  0  0  0  0  0  0  0  0  0  0  0
   23.8160   10.6540   16.8160 C   0  0  0  0  0  0  0  0  0  0  0  0
   24.6510   11.0570   15.6700 C   0  0  1  0  0  0  0  0  0  0  0  0
   24.1460   12.4060   15.1320 C   0  0  0  0  0  1  0  0  0  0  0  0
   26.1100   11.1930   16.1360 C   0  0  0  0  0  1  0  0  0  0  0  0
   24.5490    9.9840   14.5720 C   0  0  0  0  0  1  0  0  0  0  0  0
  1  3  1  0
  2  1  1  0
  3  8  1  0
  4  5  2  0
  5  7  1  0
  6  4  1  0
  6  3  2  0
  8  7  2  0
  9 13  1  0
  9  4  1  0
 10  9  1  0
 11 10  2  0
 12 10  1  0
 14  1  1  0
 15 14  1  0
 16 15  2  0
 17 16  1  0
 18 17  3  0
 19 21  1  1
 19 18  1  0
 20 19  1  0
 22 19  1  0
M  RAD  8   5   2   6   2   7   2   8   2  12   2  14   3  15   2  16   2
M  RAD  3  20   2  21   2  22   2
M  END
>  <vina_score>  (3) 
-6.327

>  <pose_id>  (3) 
3

$$$$

     RDKit          3D

 22 22  0  0  0  0  0  0  0  0999 V2000
   21.5530   15.7100   11.4470 N   0  0  0  0  0  0  0  0  0  0  0  0
   21.8170   16.2460   12.2860 H   0  0  0  0  0  0  0  0  0  0  0  0
   20.1790   15.7470   11.0140 C   0  0  0  0  0  0  0  0  0  0  0  0
   17.8130   15.4120   11.5300 C   0  0  0  0  0  0  0  0  0  0  0  0
   17.4850   15.7730   10.2160 C   0  0  0  0  0  3  0  0  0  0  0  0
   19.1650   15.3820   11.9160 C   0  0  0  0  0  3  0  0  0  0  0  0
   18.4850   16.1380    9.3130 C   0  0  0  0  0  3  0  0  0  0  0  0
   19.8250   16.1300    9.7060 C   0  0  0  0  0  3  0  0  0  0  0  0
   16.7650   15.0220   12.4350 N   0  0  0  0  0  0  0  0  0  0  0  0
   16.6780   13.7300   13.0550 C   0  0  0  0  0  0  0  0  0  0  0  0
   17.6570   12.9370   13.0330 O   0  0  0  0  0  0  0  0  0  0  0  0
   15.4510   13.3550   13.8220 C   0  0  0  0  0  1  0  0  0  0  0  0
   16.0310   15.7110   12.6510 H   0  0  0  0  0  0  0  0  0  0  0  0
   22.5930   14.9460   10.7520 C   0  0  0  0  0  2  0  0  0  0  0  0
   23.1800   13.8950   11.6480 C   0  0  0  0  0  3  0  0  0  0  0  0
   22.9730   13.9140   12.9650 C   0  0  0  0  0  3  0  0  0  0  0  0
   23.5460   12.9020   13.8110 C   0  0  0  0  0  0  0  0  0  0  0  0
   24.0270   12.0530   14.5200 C   0  0  0  0  0  0  0  0  0  0  0  0
   24.6120   11.0150   15.3880 C   0  0  1  0  0  0  0  0  0  0  0  0
   24.9260    9.7720   14.5400 C   0  0  0  0  0  1  0  0  0  0  0  0
   25.9050   11.5590   16.0170 C   0  0  0  0  0  1  0  0  0  0  0  0
   23.6030   10.6560   16.4910 C   0  0  0  0  0  1  0  0  0  0  0  0
  1  2  1  0
  3  1  1  0
  3  6  2  0
  4  6  1  0
  4  9  1  0
  5  4  2  0
  7  8  2  0
  7  5  1  0
  8  3  1  0
  9 13  1  0
  9 10  1  0
 10 12  1  0
 11 10  2  0
 14  1  1  0
 14 15  1  0
 15 16  2  0
 16 17  1  0
 17 18  3  0
 18 19  1  0
 19 21  1  1
 19 22  1  0
 20 19  1  0
M  RAD  8   5   2   6   2   7   2   8   2  12   2  14   3  15   2  16   2
M  RAD  3  20   2  21   2  22   2
M  END
>  <vina_score>  (4) 
-6.274

>  <pose_id>  (4) 
4

$$$$

     RDKit          3D

 22 22  0  0  0  0  0  0  0  0999 V2000
   18.0160   16.5150   11.4890 N   0  0  0  0  0  0  0  0  0  0  0  0
   18.1640   17.3790   12.0300 H   0  0  0  0  0  0  0  0  0  0  0  0
   17.1260   15.5150   12.0250 C   0  0  0  0  0  0  0  0  0  0  0  0
   16.7110   13.7420   13.6560 C   0  0  0  0  0  0  0  0  0  0  0  0
   15.4450   13.5320   13.0910 C   0  0  0  0  0  3  0  0  0  0  0  0
   17.5540   14.7220   13.1030 C   0  0  0  0  0  3  0  0  0  0  0  0
   15.0110   14.3150   12.0200 C   0  0  0  0  0  3  0  0  0  0  0  0
   15.8410   15.3040   11.4900 C   0  0  0  0  0  3  0  0  0  0  0  0
   17.1410   12.9080   14.7460 N   0  0  0  0  0  0  0  0  0  0  0  0
   17.3820   13.3870   16.0780 C   0  0  0  0  0  0  0  0  0  0  0  0
   16.9910   14.5320   16.4320 O   0  0  0  0  0  0  0  0  0  0  0  0
   18.0140   12.4850   17.0890 C   0  0  0  0  0  1  0  0  0  0  0  0
   17.2870   11.9060   14.5600 H   0  0  0  0  0  0  0  0  0  0  0  0
   18.7200   16.3610   10.2130 C   0  0  0  0  0  2  0  0  0  0  0  0
   19.8930   15.4370   10.3530 C   0  0  0  0  0  3  0  0  0  0  0  0
   20.7640   15.5680   11.3540 C   0  0  0  0  0  3  0  0  0  0  0  0
   21.8850   14.6770   11.4720 C   0  0  0  0  0  0  0  0  0  0  0  0
   22.8260   13.9290   11.5700 C   0  0  0  0  0  0  0  0  0  0  0  0
   23.9770   13.0150   11.6920 C   0  0  1  0  0  0  0  0  0  0  0  0
   23.4610   11.5730   11.8160 C   0  0  0  0  0  1  0  0  0  0  0  0
   24.8580   13.1500   10.4400 C   0  0  0  0  0  1  0  0  0  0  0  0
   24.7860   13.3920   12.9450 C   0  0  0  0  0  1  0  0  0  0  0  0
  1  3  1  0
  1  2  1  0
  3  6  2  0
  4  9  1  0
  5  4  2  0
  6  4  1  0
  7  5  1  0
  8  7  2  0
  8  3  1  0
  9 10  1  0
 10 11  2  0
 10 12  1  0
 13  9  1  0
 14 15  1  0
 14  1  1  0
 15 16  2  0
 16 17  1  0
 17 18  3  0
 18 19  1  0
 19 20  1  1
 19 22  1  0
 21 19  1  0
M  RAD  8   5   2   6   2   7   2   8   2  12   2  14   3  15   2  16   2
M  RAD  3  20   2  21   2  22   2
M  END
>  <vina_score>  (5) 
-5.5590000000000002

>  <pose_id>  (5) 
5

$$$$
