
     RDKit          3D

 25 26  0  0  0  0  0  0  0  0999 V2000
   15.0870   11.2660   19.1530 C   0  0  0  0  0  2  0  0  0  0  0  0
   15.8210   10.2360   19.9000 N   0  0  0  0  0  0  0  0  0  0  0  0
   15.7010    8.8450   19.5340 C   0  0  0  0  0  0  0  0  0  0  0  0
   16.2780    8.4140   18.4990 O   0  0  0  0  0  0  0  0  0  0  0  0
   14.8830    7.8920   20.3530 C   0  0  0  0  0  1  0  0  0  0  0  0
   16.6950   10.6400   20.9700 C   0  0  0  0  0  0  0  0  0  0  0  0
   16.1380   10.9450   22.2190 C   0  0  0  0  0  3  0  0  0  0  0  0
   18.0940   10.7490   20.7820 C   0  0  0  0  0  0  0  0  0  0  0  0
   16.9490   11.3500   23.2790 C   0  0  0  0  0  3  0  0  0  0  0  0
   18.9060   11.1660   21.8620 C   0  0  0  0  0  0  0  0  0  0  0  0
   18.7720   10.2980   19.5020 C   0  0  0  0  0  2  0  0  0  0  0  0
   18.3270   11.4610   23.1030 C   0  0  0  0  0  3  0  0  0  0  0  0
   20.3240   11.3050   21.6840 N   0  0  0  0  0  0  0  0  0  0  0  0
   20.0010   11.1510   19.1760 C   0  0  0  0  0  2  0  0  0  0  0  0
   20.8970   11.2540   20.3740 C   0  0  0  0  0  0  0  0  0  0  0  0
   22.1440   11.3570   20.2260 O   0  0  0  0  0  0  0  0  0  0  0  0
   20.9320   11.4420   22.5040 H   0  0  0  0  0  0  0  0  0  0  0  0
   16.0170   12.0040   18.2370 C   0  0  0  0  0  3  0  0  0  0  0  0
   15.5550   12.7120   17.2080 C   0  0  0  0  0  3  0  0  0  0  0  0
   16.4600   13.3660   16.3040 C   0  0  0  0  0  0  0  0  0  0  0  0
   17.2200   13.9090   15.5420 C   0  0  0  0  0  0  0  0  0  0  0  0
   18.1550   14.5710   14.6130 C   0  0  1  0  0  0  0  0  0  0  0  0
   18.1420   16.0840   14.8840 C   0  0  0  0  0  1  0  0  0  0  0  0
   19.5680   14.0100   14.8400 C   0  0  0  0  0  1  0  0  0  0  0  0
   17.7070   14.2940   13.1680 C   0  0  0  0  0  1  0  0  0  0  0  0
  1  2  1  0
  2  6  1  0
  3  2  1  0
  3  5  1  0
  4  3  2  0
  6  7  2  0
  7  9  1  0
  8  6  1  0
  8 10  2  0
 10 12  1  0
 11  8  1  0
 12  9  2  0
 13 10  1  0
 13 17  1  0
 14 11  1  0
 14 15  1  0
 15 13  1  0
 16 15  2  0
 18  1  1  0
 19 18  2  0
 20 19  1  0
 21 20  3  0
 22 24  1  6
 22 23  1  0
 22 21  1  0
 25 22  1  0
M  RAD  8   1   3   5   2   7   2   9   2  11   3  12   2  14   3  18   2
M  RAD  4  19   2  23   2  24   2  25   2
M  END
>  <vina_score>  (1) 
-7.2329999999999997

>  <pose_id>  (1) 
1

$$$$

     RDKit          3D

 25 26  0  0  0  0  0  0  0  0999 V2000
   19.1850   10.7880   18.5790 C   0  0  0  0  0  2  0  0  0  0  0  0
   18.5810    9.5290   19.0340 N   0  0  0  0  0  0  0  0  0  0  0  0
   19.2030    8.2650   18.7170 C   0  0  0  0  0  0  0  0  0  0  0  0
   19.7390    8.0930   17.5880 O   0  0  0  0  0  0  0  0  0  0  0  0
   19.2090    7.1320   19.6990 C   0  0  0  0  0  1  0  0  0  0  0  0
   17.3890    9.5770   19.8390 C   0  0  0  0  0  0  0  0  0  0  0  0
   16.2200    8.9750   19.3510 C   0  0  0  0  0  3  0  0  0  0  0  0
   17.3690   10.2280   21.0960 C   0  0  0  0  0  0  0  0  0  0  0  0
   15.0410    9.0080   20.0950 C   0  0  0  0  0  3  0  0  0  0  0  0
   16.1660   10.2610   21.8380 C   0  0  0  0  0  0  0  0  0  0  0  0
   18.6310   10.7720   21.7400 C   0  0  0  0  0  2  0  0  0  0  0  0
   15.0120    9.6490   21.3340 C   0  0  0  0  0  3  0  0  0  0  0  0
   16.1210   10.9370   23.1040 N   0  0  0  0  0  0  0  0  0  0  0  0
   18.3490   12.0220   22.5790 C   0  0  0  0  0  2  0  0  0  0  0  0
   17.2050   11.7750   23.5160 C   0  0  0  0  0  0  0  0  0  0  0  0
   17.1680   12.3500   24.6360 O   0  0  0  0  0  0  0  0  0  0  0  0
   15.3040   10.8180   23.7190 H   0  0  0  0  0  0  0  0  0  0  0  0
   18.2360   11.5240   17.6830 C   0  0  0  0  0  3  0  0  0  0  0  0
   18.6730   12.4210   16.8000 C   0  0  0  0  0  3  0  0  0  0  0  0
   17.7480   13.1620   15.9890 C   0  0  0  0  0  0  0  0  0  0  0  0
   16.9720   13.7890   15.3130 C   0  0  0  0  0  0  0  0  0  0  0  0
   16.0270   14.5620   14.4860 C   0  0  1  0  0  0  0  0  0  0  0  0
   15.0910   15.3610   15.4090 C   0  0  0  0  0  1  0  0  0  0  0  0
   16.8190   15.5220   13.5850 C   0  0  0  0  0  1  0  0  0  0  0  0
   15.2050   13.5900   13.6220 C   0  0  0  0  0  1  0  0  0  0  0  0
  1  2  1  0
  2  6  1  0
  3  2  1  0
  3  5  1  0
  4  3  2  0
  6  8  1  0
  7  6  2  0
  7  9  1  0
  8 11  1  0
  8 10  2  0
  9 12  2  0
 10 13  1  0
 11 14  1  0
 12 10  1  0
 13 15  1  0
 13 17  1  0
 14 15  1  0
 15 16  2  0
 18  1  1  0
 19 18  2  0
 20 19  1  0
 21 20  3  0
 22 21  1  0
 22 23  1  1
 24 22  1  0
 25 22  1  0
M  RAD  8   1   3   5   2   7   2   9   2  11   3  12   2  14   3  18   2
M  RAD  4  19   2  23   2  24   2  25   2
M  END
>  <vina_score>  (2) 
-7.1130000000000004

>  <pose_id>  (2) 
2

$$$$

     RDKit          3D

 25 26  0  0  0  0  0  0  0  0999 V2000
   17.0910   13.8540   15.6420 C   0  0  0  0  0  2  0  0  0  0  0  0
   17.1290   13.2000   14.3290 N   0  0  0  0  0  0  0  0  0  0  0  0
   17.4840   11.8050   14.2180 C   0  0  0  0  0  0  0  0  0  0  0  0
   16.5980   10.9180   14.3520 O   0  0  0  0  0  0  0  0  0  0  0  0
   18.8990   11.3790   13.9640 C   0  0  0  0  0  1  0  0  0  0  0  0
   16.7630   13.9580   13.1600 C   0  0  0  0  0  0  0  0  0  0  0  0
   15.4190   13.9770   12.7610 C   0  0  0  0  0  3  0  0  0  0  0  0
   17.7290   14.6640   12.4030 C   0  0  0  0  0  0  0  0  0  0  0  0
   15.0250   14.6900   11.6290 C   0  0  0  0  0  3  0  0  0  0  0  0
   17.3190   15.3790   11.2540 C   0  0  0  0  0  0  0  0  0  0  0  0
   19.1690   14.7990   12.8620 C   0  0  0  0  0  2  0  0  0  0  0  0
   15.9700   15.3880   10.8770 C   0  0  0  0  0  3  0  0  0  0  0  0
   18.2870   16.0820   10.4610 N   0  0  0  0  0  0  0  0  0  0  0  0
   20.1400   14.8580   11.6790 C   0  0  0  0  0  2  0  0  0  0  0  0
   19.6860   15.8800   10.6800 C   0  0  0  0  0  0  0  0  0  0  0  0
   20.5300   16.5150    9.9950 O   0  0  0  0  0  0  0  0  0  0  0  0
   17.9720   16.7360    9.7300 H   0  0  0  0  0  0  0  0  0  0  0  0
   17.2080   12.8340   16.7340 C   0  0  0  0  0  3  0  0  0  0  0  0
   16.1820   12.5610   17.5380 C   0  0  0  0  0  3  0  0  0  0  0  0
   16.3250   11.6230   18.6170 C   0  0  0  0  0  0  0  0  0  0  0  0
   16.4480   10.8420   19.5270 C   0  0  0  0  0  0  0  0  0  0  0  0
   16.6010    9.8930   20.6450 C   0  0  1  0  0  0  0  0  0  0  0  0
   17.9860    9.2320   20.5550 C   0  0  0  0  0  1  0  0  0  0  0  0
   16.4700   10.6570   21.9720 C   0  0  0  0  0  1  0  0  0  0  0  0
   15.5010    8.8220   20.5460 C   0  0  0  0  0  1  0  0  0  0  0  0
  1 18  1  0
  2  1  1  0
  3  2  1  0
  3  4  2  0
  5  3  1  0
  6  2  1  0
  7  6  2  0
  8 11  1  0
  8  6  1  0
  9  7  1  0
 10  8  2  0
 12 10  1  0
 12  9  2  0
 13 15  1  0
 13 10  1  0
 14 11  1  0
 15 14  1  0
 16 15  2  0
 17 13  1  0
 18 19  2  0
 19 20  1  0
 20 21  3  0
 21 22  1  0
 22 24  1  1
 23 22  1  0
 25 22  1  0
M  RAD  8   1   3   5   2   7   2   9   2  11   3  12   2  14   3  18   2
M  RAD  4  19   2  23   2  24   2  25   2
M  END
>  <vina_score>  (3) 
-6.9779999999999998

>  <pose_id>  (3) 
3

$$$$

     RDKit          3D

 25 26  0  0  0  0  0  0  0  0999 V2000
   16.3210   13.0780   14.9390 C   0  0  0  0  0  2  0  0  0  0  0  0
   16.5040   14.5090   14.6630 N   0  0  0  0  0  0  0  0  0  0  0  0
   16.3790   15.4790   15.7240 C   0  0  0  0  0  0  0  0  0  0  0  0
   17.3620   16.2050   16.0330 O   0  0  0  0  0  0  0  0  0  0  0  0
   15.1000   15.6330   16.4920 C   0  0  0  0  0  1  0  0  0  0  0  0
   16.8540   14.9230   13.3300 C   0  0  0  0  0  0  0  0  0  0  0  0
   15.8350   15.3360   12.4600 C   0  0  0  0  0  3  0  0  0  0  0  0
   18.1960   14.9070   12.8770 C   0  0  0  0  0  0  0  0  0  0  0  0
   16.1310   15.7350   11.1570 C   0  0  0  0  0  3  0  0  0  0  0  0
   18.4840   15.3080   11.5530 C   0  0  0  0  0  0  0  0  0  0  0  0
   19.3550   14.6100   13.8100 C   0  0  0  0  0  2  0  0  0  0  0  0
   17.4490   15.7220   10.7030 C   0  0  0  0  0  3  0  0  0  0  0  0
   19.8350   15.2770   11.0700 N   0  0  0  0  0  0  0  0  0  0  0  0
   20.5000   13.8950   13.0850 C   0  0  0  0  0  2  0  0  0  0  0  0
   20.8600   14.6270   11.8270 C   0  0  0  0  0  0  0  0  0  0  0  0
   22.0470   14.6200   11.4070 O   0  0  0  0  0  0  0  0  0  0  0  0
   20.0680   15.7240   10.1720 H   0  0  0  0  0  0  0  0  0  0  0  0
   17.1780   12.6600   16.0960 C   0  0  0  0  0  3  0  0  0  0  0  0
   16.6510   12.0800   17.1720 C   0  0  0  0  0  3  0  0  0  0  0  0
   17.4750   11.7370   18.2980 C   0  0  0  0  0  0  0  0  0  0  0  0
   18.1650   11.4570   19.2450 C   0  0  0  0  0  0  0  0  0  0  0  0
   19.0060   11.1080   20.4060 C   0  0  1  0  0  0  0  0  0  0  0  0
   18.3950   11.7280   21.6730 C   0  0  0  0  0  1  0  0  0  0  0  0
   19.0580    9.5780   20.5440 C   0  0  0  0  0  1  0  0  0  0  0  0
   20.4240   11.6620   20.1820 C   0  0  0  0  0  1  0  0  0  0  0  0
  1 18  1  0
  2  1  1  0
  2  3  1  0
  3  4  2  0
  3  5  1  0
  6  2  1  0
  7  6  2  0
  8  6  1  0
  8 11  1  0
  9  7  1  0
 10  8  2  0
 12  9  2  0
 12 10  1  0
 13 10  1  0
 13 15  1  0
 14 11  1  0
 15 14  1  0
 16 15  2  0
 17 13  1  0
 18 19  2  0
 19 20  1  0
 20 21  3  0
 21 22  1  0
 22 24  1  1
 22 23  1  0
 25 22  1  0
M  RAD  8   1   3   5   2   7   2   9   2  11   3  12   2  14   3  18   2
M  RAD  4  19   2  23   2  24   2  25   2
M  END
>  <vina_score>  (4) 
-6.9450000000000003

>  <pose_id>  (4) 
4

$$$$

     RDKit          3D

 25 26  0  0  0  0  0  0  0  0999 V2000
   17.5900   11.9010   14.1570 C   0  0  0  0  0  2  0  0  0  0  0  0
   17.1180   13.2850   14.2960 N   0  0  0  0  0  0  0  0  0  0  0  0
   17.0880   13.9180   15.5930 C   0  0  0  0  0  0  0  0  0  0  0  0
   17.7110   14.9990   15.7810 O   0  0  0  0  0  0  0  0  0  0  0  0
   16.3430   13.3060   16.7410 C   0  0  0  0  0  1  0  0  0  0  0  0
   16.7320   14.0130   13.1160 C   0  0  0  0  0  0  0  0  0  0  0  0
   15.3820   14.0170   12.7370 C   0  0  0  0  0  3  0  0  0  0  0  0
   17.6820   14.7070   12.3290 C   0  0  0  0  0  0  0  0  0  0  0  0
   14.9670   14.7010   11.5950 C   0  0  0  0  0  3  0  0  0  0  0  0
   17.2520   15.3920   11.1700 C   0  0  0  0  0  0  0  0  0  0  0  0
   19.1280   14.8590   12.7630 C   0  0  0  0  0  2  0  0  0  0  0  0
   15.8970   15.3870   10.8130 C   0  0  0  0  0  3  0  0  0  0  0  0
   18.2040   16.0820   10.3470 N   0  0  0  0  0  0  0  0  0  0  0  0
   20.0810   14.8950   11.5650 C   0  0  0  0  0  2  0  0  0  0  0  0
   19.6070   15.8920   10.5500 C   0  0  0  0  0  0  0  0  0  0  0  0
   20.4380   16.5150    9.8370 O   0  0  0  0  0  0  0  0  0  0  0  0
   17.8760   16.7170    9.6060 H   0  0  0  0  0  0  0  0  0  0  0  0
   19.0440   11.8830   13.7940 C   0  0  0  0  0  3  0  0  0  0  0  0
   19.9840   12.1840   14.6890 C   0  0  0  0  0  3  0  0  0  0  0  0
   21.3700   12.2190   14.3120 C   0  0  0  0  0  0  0  0  0  0  0  0
   22.5310   12.2570   13.9950 C   0  0  0  0  0  0  0  0  0  0  0  0
   23.9540   12.2960   13.6060 C   0  0  1  0  0  0  0  0  0  0  0  0
   24.8180   12.3860   14.8740 C   0  0  0  0  0  1  0  0  0  0  0  0
   24.2960   11.0140   12.8290 C   0  0  0  0  0  1  0  0  0  0  0  0
   24.1970   13.5270   12.7170 C   0  0  0  0  0  1  0  0  0  0  0  0
  1  2  1  0
  2  3  1  0
  3  4  2  0
  3  5  1  0
  6  2  1  0
  7  6  2  0
  8 11  1  0
  8  6  1  0
  9  7  1  0
 10  8  2  0
 12 10  1  0
 12  9  2  0
 13 15  1  0
 13 10  1  0
 14 11  1  0
 15 14  1  0
 16 15  2  0
 17 13  1  0
 18  1  1  0
 18 19  2  0
 20 19  1  0
 21 20  3  0
 22 21  1  0
 22 23  1  1
 24 22  1  0
 25 22  1  0
M  RAD  8   1   3   5   2   7   2   9   2  11   3  12   2  14   3  18   2
M  RAD  4  19   2  23   2  24   2  25   2
M  END
>  <vina_score>  (5) 
-6.8849999999999998

>  <pose_id>  (5) 
5

$$$$
