
     RDKit          3D

 25 26  0  0  1  0  0  0  0  0999 V2000
   14.5870   10.6660   19.8040 C   0  0  0  0  0  2  0  0  0  0  0  0
   15.0430   11.6260   18.7950 C   0  0  0  0  0  0  0  0  0  0  0  0
   15.7200    9.8710   20.2820 N   0  0  0  0  0  0  0  0  0  0  0  0
   15.8280    8.4490   19.9590 C   0  0  0  0  0  1  0  0  0  0  0  0
   16.6450   10.4450   21.2190 C   0  0  0  0  0  0  0  0  0  0  0  0
   16.1840   10.8310   22.4850 C   0  0  0  0  0  3  0  0  0  0  0  0
   18.0010   10.6380   20.8750 C   0  0  0  0  0  0  0  0  0  0  0  0
   17.0520   11.4320   23.3990 C   0  0  0  0  0  3  0  0  0  0  0  0
   18.8680   11.2570   21.8030 C   0  0  0  0  0  0  0  0  0  0  0  0
   18.5160   10.3040   19.4900 C   0  0  0  0  0  2  0  0  0  0  0  0
   18.3870   11.6490   23.0580 C   0  0  0  0  0  3  0  0  0  0  0  0
   20.2480   11.4710   21.4680 N   0  0  0  0  0  0  0  0  0  0  0  0
   19.9970    9.8830   19.5070 C   0  0  0  0  0  3  0  0  0  0  0  0
   20.8200   10.8520   20.3140 C   0  0  0  0  0  0  0  0  0  0  0  0
   22.0300   11.0580   20.0250 O   0  0  0  0  0  0  0  0  0  0  0  0
   20.8300   12.0770   22.0650 H   0  0  0  0  0  0  0  0  0  0  0  0
   20.4910    9.7580   18.1960 O   0  0  0  0  0  0  0  0  0  0  0  0
   20.6370   10.6590   17.8110 H   0  0  0  0  0  0  0  0  0  0  0  0
   15.4240   12.4110   17.9640 C   0  0  0  0  0  0  0  0  0  0  0  0
   15.8660   13.3300   16.9890 C   0  0  0  0  0  0  0  0  0  0  0  0
   16.2440   14.1160   16.1550 C   0  0  0  0  0  0  0  0  0  0  0  0
   16.7030   15.0770   15.1360 C   0  0  1  0  0  0  0  0  0  0  0  0
   16.5970   16.5010   15.7050 C   0  0  0  0  0  1  0  0  0  0  0  0
   18.1650   14.7640   14.7760 C   0  0  0  0  0  1  0  0  0  0  0  0
   15.8170   14.9450   13.8860 C   0  0  0  0  0  1  0  0  0  0  0  0
  1  3  1  0
  2  1  1  0
  3  5  1  0
  4  3  1  0
  5  6  1  0
  6  8  2  0
  7  5  2  0
  7  9  1  0
  9 11  2  0
 10 13  1  0
 10  7  1  0
 11  8  1  0
 12  9  1  0
 12 16  1  0
 13 17  1  0
 13 14  1  0
 14 12  1  0
 15 14  2  0
 18 17  1  0
 19  2  3  0
 20 19  1  0
 21 20  3  0
 22 23  1  1
 22 21  1  0
 24 22  1  0
 25 22  1  0
M  RAD  8   1   3   4   2   6   2   8   2  10   3  11   2  13   2  23   2
M  RAD  2  24   2  25   2
M  END
>  <vina_score>  (1) 
-7.3419999999999996

>  <pose_id>  (1) 
1

$$$$

     RDKit          3D

 25 26  0  0  1  0  0  0  0  0999 V2000
   20.7840   10.4470   20.7600 C   0  0  0  0  0  2  0  0  0  0  0  0
   21.7170   10.4760   19.6300 C   0  0  0  0  0  0  0  0  0  0  0  0
   19.5480   11.1470   20.4030 N   0  0  0  0  0  0  0  0  0  0  0  0
   19.4890   12.0070   19.2210 C   0  0  0  0  0  1  0  0  0  0  0  0
   18.4350   11.1300   21.3090 C   0  0  0  0  0  0  0  0  0  0  0  0
   18.4470   11.9820   22.4230 C   0  0  0  0  0  3  0  0  0  0  0  0
   17.3420   10.2590   21.1020 C   0  0  0  0  0  0  0  0  0  0  0  0
   17.3980   11.9540   23.3430 C   0  0  0  0  0  3  0  0  0  0  0  0
   16.2910   10.2320   22.0460 C   0  0  0  0  0  0  0  0  0  0  0  0
   17.3320    9.2720   19.9520 C   0  0  0  0  0  2  0  0  0  0  0  0
   16.3270   11.0790   23.1590 C   0  0  0  0  0  3  0  0  0  0  0  0
   15.1770    9.3460   21.8580 N   0  0  0  0  0  0  0  0  0  0  0  0
   15.9050    8.9740   19.4570 C   0  0  0  0  0  3  0  0  0  0  0  0
   14.9880    8.6700   20.6120 C   0  0  0  0  0  0  0  0  0  0  0  0
   14.0110    7.8860   20.4650 O   0  0  0  0  0  0  0  0  0  0  0  0
   14.5080    9.1970   22.6270 H   0  0  0  0  0  0  0  0  0  0  0  0
   15.9150    7.9240   18.5210 O   0  0  0  0  0  0  0  0  0  0  0  0
   15.3680    8.1780   17.7340 H   0  0  0  0  0  0  0  0  0  0  0  0
   22.4800   10.5060   18.6980 C   0  0  0  0  0  0  0  0  0  0  0  0
   23.3720   10.5410   17.6050 C   0  0  0  0  0  0  0  0  0  0  0  0
   24.1330   10.5720   16.6700 C   0  0  0  0  0  0  0  0  0  0  0  0
   25.0650   10.6130   15.5280 C   0  0  1  0  0  0  0  0  0  0  0  0
   26.5070   10.5690   16.0560 C   0  0  0  0  0  1  0  0  0  0  0  0
   24.8000    9.3970   14.6240 C   0  0  0  0  0  1  0  0  0  0  0  0
   24.8340   11.9120   14.7390 C   0  0  0  0  0  1  0  0  0  0  0  0
  2  1  1  0
  3  1  1  0
  3  5  1  0
  4  3  1  0
  5  6  1  0
  6  8  2  0
  7  5  2  0
  7  9  1  0
  9 11  2  0
 10  7  1  0
 11  8  1  0
 12  9  1  0
 12 16  1  0
 13 17  1  0
 13 10  1  0
 13 14  1  0
 14 12  1  0
 15 14  2  0
 18 17  1  0
 19  2  3  0
 20 19  1  0
 21 20  3  0
 22 23  1  1
 22 21  1  0
 24 22  1  0
 25 22  1  0
M  RAD  8   1   3   4   2   6   2   8   2  10   3  11   2  13   2  23   2
M  RAD  2  24   2  25   2
M  END
>  <vina_score>  (2) 
-6.7039999999999997

>  <pose_id>  (2) 
2

$$$$

     RDKit          3D

 25 26  0  0  1  0  0  0  0  0999 V2000
   15.8860   13.3060   14.7170 C   0  0  0  0  0  2  0  0  0  0  0  0
   16.1850   12.7430   16.0360 C   0  0  0  0  0  0  0  0  0  0  0  0
   16.5570   14.5990   14.5640 N   0  0  0  0  0  0  0  0  0  0  0  0
   16.5160   15.5960   15.6330 C   0  0  0  0  0  1  0  0  0  0  0  0
   17.1160   14.9630   13.2920 C   0  0  0  0  0  0  0  0  0  0  0  0
   16.2720   15.4700   12.2940 C   0  0  0  0  0  3  0  0  0  0  0  0
   18.4950   14.8010   13.0310 C   0  0  0  0  0  0  0  0  0  0  0  0
   16.7810   15.7900   11.0350 C   0  0  0  0  0  3  0  0  0  0  0  0
   18.9980   15.1180   11.7490 C   0  0  0  0  0  0  0  0  0  0  0  0
   19.4220   14.1850   14.0590 C   0  0  0  0  0  2  0  0  0  0  0  0
   18.1370   15.6100   10.7610 C   0  0  0  0  0  3  0  0  0  0  0  0
   20.3940   14.9510   11.4620 N   0  0  0  0  0  0  0  0  0  0  0  0
   20.8580   14.7290   13.9450 C   0  0  0  0  0  3  0  0  0  0  0  0
   21.3290   14.7050   12.5160 C   0  0  0  0  0  0  0  0  0  0  0  0
   22.5510   14.5500   12.2480 O   0  0  0  0  0  0  0  0  0  0  0  0
   20.7260   15.0100   10.4880 H   0  0  0  0  0  0  0  0  0  0  0  0
   21.7280   14.0090   14.7840 O   0  0  0  0  0  0  0  0  0  0  0  0
   22.5720   13.8210   14.3010 H   0  0  0  0  0  0  0  0  0  0  0  0
   16.4320   12.2870   17.1240 C   0  0  0  0  0  0  0  0  0  0  0  0
   16.7180   11.7490   18.3970 C   0  0  0  0  0  0  0  0  0  0  0  0
   16.9640   11.2900   19.4840 C   0  0  0  0  0  0  0  0  0  0  0  0
   17.2640   10.7290   20.8150 C   0  0  1  0  0  0  0  0  0  0  0  0
   15.9540   10.5890   21.6060 C   0  0  0  0  0  1  0  0  0  0  0  0
   17.9210    9.3510   20.6410 C   0  0  0  0  0  1  0  0  0  0  0  0
   18.2230   11.6780   21.5530 C   0  0  0  0  0  1  0  0  0  0  0  0
  1  2  1  0
  2 19  3  0
  3  1  1  0
  3  4  1  0
  5  3  1  0
  6  5  1  0
  7  5  2  0
  7 10  1  0
  8  6  2  0
  9  7  1  0
 11  8  1  0
 11  9  2  0
 12  9  1  0
 12 14  1  0
 13 10  1  0
 13 17  1  0
 14 13  1  0
 15 14  2  0
 16 12  1  0
 18 17  1  0
 19 20  1  0
 20 21  3  0
 21 22  1  0
 22 25  1  1
 22 23  1  0
 24 22  1  0
M  RAD  8   1   3   4   2   6   2   8   2  10   3  11   2  13   2  23   2
M  RAD  2  24   2  25   2
M  END
>  <vina_score>  (3) 
-6.6909999999999998

>  <pose_id>  (3) 
3

$$$$

     RDKit          3D

 25 26  0  0  1  0  0  0  0  0999 V2000
   18.2850    8.9010   17.2770 C   0  0  0  0  0  2  0  0  0  0  0  0
   17.7760   10.2450   16.9870 C   0  0  0  0  0  0  0  0  0  0  0  0
   18.3790    8.7070   18.7260 N   0  0  0  0  0  0  0  0  0  0  0  0
   19.6450    8.3200   19.3480 C   0  0  0  0  0  1  0  0  0  0  0  0
   17.1870    8.7270   19.5250 C   0  0  0  0  0  0  0  0  0  0  0  0
   16.1330    7.8610   19.2020 C   0  0  0  0  0  3  0  0  0  0  0  0
   17.0580    9.6160   20.6150 C   0  0  0  0  0  0  0  0  0  0  0  0
   14.9450    7.8910   19.9340 C   0  0  0  0  0  3  0  0  0  0  0  0
   15.8470    9.6450   21.3430 C   0  0  0  0  0  0  0  0  0  0  0  0
   18.1450   10.6180   20.9450 C   0  0  0  0  0  2  0  0  0  0  0  0
   14.8000    8.7820   20.9970 C   0  0  0  0  0  3  0  0  0  0  0  0
   15.6930   10.5480   22.4480 N   0  0  0  0  0  0  0  0  0  0  0  0
   18.1980   10.9420   22.4490 C   0  0  0  0  0  3  0  0  0  0  0  0
   16.8230   11.2440   22.9820 C   0  0  0  0  0  0  0  0  0  0  0  0
   16.6710   12.0420   23.9460 O   0  0  0  0  0  0  0  0  0  0  0  0
   14.7600   10.6970   22.8610 H   0  0  0  0  0  0  0  0  0  0  0  0
   19.0870   12.0040   22.6960 O   0  0  0  0  0  0  0  0  0  0  0  0
   19.9550   11.6420   23.0070 H   0  0  0  0  0  0  0  0  0  0  0  0
   17.3610   11.3510   16.7550 C   0  0  0  0  0  0  0  0  0  0  0  0
   16.8730   12.6470   16.4800 C   0  0  0  0  0  0  0  0  0  0  0  0
   16.4550   13.7530   16.2450 C   0  0  0  0  0  0  0  0  0  0  0  0
   15.9420   15.1050   15.9560 C   0  0  1  0  0  0  0  0  0  0  0  0
   15.0310   15.5520   17.1100 C   0  0  0  0  0  1  0  0  0  0  0  0
   17.1300   16.0720   15.8210 C   0  0  0  0  0  1  0  0  0  0  0  0
   15.1450   15.0690   14.6420 C   0  0  0  0  0  1  0  0  0  0  0  0
  1  3  1  0
  2  1  1  0
  3  4  1  0
  3  5  1  0
  5  7  2  0
  6  5  1  0
  6  8  2  0
  7 10  1  0
  7  9  1  0
  8 11  1  0
  9 12  1  0
 10 13  1  0
 11  9  2  0
 12 16  1  0
 12 14  1  0
 13 17  1  0
 13 14  1  0
 14 15  2  0
 17 18  1  0
 19  2  3  0
 20 19  1  0
 21 20  3  0
 22 21  1  0
 22 23  1  1
 24 22  1  0
 25 22  1  0
M  RAD  8   1   3   4   2   6   2   8   2  10   3  11   2  13   2  23   2
M  RAD  2  24   2  25   2
M  END
>  <vina_score>  (4) 
-6.5519999999999996

>  <pose_id>  (4) 
4

$$$$
