
     RDKit          3D

 44 46  0  0  1  0  0  0  0  0999 V2000
   20.2930    8.5360   17.7460 C   0  0  0  0  0  3  0  0  0  0  0  0
   19.7400    9.6080   18.7370 C   0  0  0  0  0  3  0  0  0  0  0  0
   20.5660   10.9080   18.6060 C   0  0  0  0  0  1  0  0  0  0  0  0
   19.7510    9.0950   20.2100 C   0  0  0  0  0  3  0  0  0  0  0  0
   19.4620    7.7210   20.2470 O   0  0  0  0  0  0  0  0  0  0  0  0
   20.0120    7.2870   20.9470 H   0  0  0  0  0  0  0  0  0  0  0  0
   18.7530    9.8190   21.0860 C   0  0  0  0  0  0  0  0  0  0  0  0
   19.1750   10.7610   22.0370 C   0  0  0  0  0  3  0  0  0  0  0  0
   17.4270    9.5340   20.9670 N   0  0  0  0  0  0  0  0  0  0  0  0
   18.2260   11.3990   22.8370 C   0  0  0  0  0  3  0  0  0  0  0  0
   16.4880   10.1420   21.7390 C   0  0  0  0  0  3  0  0  0  0  0  0
   16.8690   11.0910   22.6910 C   0  0  0  0  0  0  0  0  0  0  0  0
   15.9040   11.7120   23.4790 O   0  0  0  0  0  0  0  0  0  0  0  0
   14.9900   11.8510   23.1250 H   0  0  0  0  0  0  0  0  0  0  0  0
   21.4870    7.8800   18.2910 N   0  0  0  0  0  0  0  0  0  0  0  0
   21.3440    7.6850   19.2920 H   0  0  0  0  0  0  0  0  0  0  0  0
   21.6530    6.9950   17.7890 H   0  0  0  0  0  0  0  0  0  0  0  0
   20.5990    9.0970   16.3750 C   0  0  0  0  0  0  0  0  0  0  0  0
   19.6730    9.6450   15.7170 O   0  0  0  0  0  0  0  0  0  0  0  0
   21.9190    9.0020   15.8170 N   0  0  0  0  0  0  0  0  0  0  0  0
   22.6700    8.5790   16.3810 H   0  0  0  0  0  0  0  0  0  0  0  0
   22.2340    9.4880   14.4720 C   0  0  0  0  0  3  0  0  0  0  0  0
   22.3690    8.3140   13.5450 C   0  0  0  0  0  0  0  0  0  0  0  0
   21.3410    7.7810   13.0450 O   0  0  0  0  0  0  0  0  0  0  0  0
   23.6300    7.8170   13.2290 O   0  0  0  0  0  0  0  0  0  0  0  0
   23.7200    7.0590   12.5980 H   0  0  0  0  0  0  0  0  0  0  0  0
   23.5330   10.3210   14.4810 C   0  0  0  0  0  3  0  0  0  0  0  0
   23.8730   10.6910   13.1630 O   0  0  0  0  0  0  0  0  0  0  0  0
   23.3960   11.5990   15.3020 C   0  0  0  0  0  3  0  0  0  0  0  0
   24.5370   11.9390   13.2240 C   0  0  0  0  0  3  0  0  0  0  0  0
   24.3900   12.5270   14.6370 C   0  0  0  0  0  3  0  0  0  0  0  0
   23.7000   11.3710   16.6550 O   0  0  0  0  0  0  0  0  0  0  0  0
   24.4540   10.7330   16.7210 H   0  0  0  0  0  0  0  0  0  0  0  0
   23.9730   12.8630   12.2180 N   0  0  0  0  0  0  0  0  0  0  0  0
   23.1230   13.8610   12.6180 C   0  0  0  0  0  3  0  0  0  0  0  0
   24.3440   12.7850   10.8980 C   0  0  0  0  0  0  0  0  0  0  0  0
   22.6060   14.7670   11.6970 C   0  0  0  0  0  3  0  0  0  0  0  0
   23.8440   13.6660    9.9880 N   0  0  0  0  0  0  0  0  0  0  0  0
   25.1590   11.9020   10.5100 O   0  0  0  0  0  0  0  0  0  0  0  0
   22.9840   14.6490   10.3640 C   0  0  0  0  0  0  0  0  0  0  0  0
   22.5350   15.4560    9.5080 O   0  0  0  0  0  0  0  0  0  0  0  0
   24.1230   13.5870    8.9990 H   0  0  0  0  0  0  0  0  0  0  0  0
   25.6280   12.5600   15.3090 O   0  0  0  0  0  0  0  0  0  0  0  0
   26.1570   13.3320   14.9870 H   0  0  0  0  0  0  0  0  0  0  0  0
  1 18  1  0
  1 15  1  1
  2  1  1  0
  2  3  1  0
  2  4  1  0
  4  5  1  1
  4  7  1  0
  5  6  1  0
  7  8  1  0
  8 10  2  0
  9  7  2  0
  9 11  1  0
 11 12  2  0
 12 10  1  0
 12 13  1  0
 14 13  1  0
 15 16  1  0
 17 15  1  0
 19 18  2  0
 20 18  1  0
 20 21  1  0
 22 23  1  0
 22 20  1  0
 24 23  2  0
 25 23  1  0
 26 25  1  0
 27 22  1  1
 27 29  1  0
 30 28  1  0
 28 27  1  0
 29 32  1  0
 30 34  1  0
 30 31  1  0
 31 29  1  1
 31 43  1  0
 32 33  1  0
 34 35  1  0
 36 34  1  0
 37 35  2  0
 38 40  1  0
 38 36  1  0
 39 36  2  0
 40 37  1  0
 41 40  2  0
 42 38  1  0
 44 43  1  0
M  END
>  <vina_score>  (1) 
-7.931

>  <pose_id>  (1) 
1

$$$$

     RDKit          3D

 44 46  0  0  1  0  0  0  0  0999 V2000
   23.3760   10.4560   16.1780 C   0  0  0  0  0  3  0  0  0  0  0  0
   24.0120    9.6120   15.0280 C   0  0  0  0  0  3  0  0  0  0  0  0
   24.4210    8.2240   15.5720 C   0  0  0  0  0  1  0  0  0  0  0  0
   25.2370   10.3360   14.3890 C   0  0  0  0  0  3  0  0  0  0  0  0
   25.8830   11.1340   15.3470 O   0  0  0  0  0  0  0  0  0  0  0  0
   26.8290   10.8520   15.4280 H   0  0  0  0  0  0  0  0  0  0  0  0
   24.8500   11.2100   13.2180 C   0  0  0  0  0  0  0  0  0  0  0  0
   24.4810   12.5510   13.4070 C   0  0  0  0  0  3  0  0  0  0  0  0
   24.8360   10.6810   11.9630 N   0  0  0  0  0  0  0  0  0  0  0  0
   24.1170   13.3240   12.3030 C   0  0  0  0  0  3  0  0  0  0  0  0
   24.4800   11.4160   10.8760 C   0  0  0  0  0  3  0  0  0  0  0  0
   24.1150   12.7560   11.0240 C   0  0  0  0  0  0  0  0  0  0  0  0
   23.7530   13.5060    9.9080 O   0  0  0  0  0  0  0  0  0  0  0  0
   24.4470   13.8170    9.2740 H   0  0  0  0  0  0  0  0  0  0  0  0
   23.9450   10.0870   17.4790 N   0  0  0  0  0  0  0  0  0  0  0  0
   24.8990    9.7230   17.3460 H   0  0  0  0  0  0  0  0  0  0  0  0
   23.9760   10.9180   18.0880 H   0  0  0  0  0  0  0  0  0  0  0  0
   21.8680   10.3450   16.2290 C   0  0  0  0  0  0  0  0  0  0  0  0
   21.2650    9.7460   15.2970 O   0  0  0  0  0  0  0  0  0  0  0  0
   21.1230   10.9230   17.3130 N   0  0  0  0  0  0  0  0  0  0  0  0
   21.6340   11.3820   18.0800 H   0  0  0  0  0  0  0  0  0  0  0  0
   19.6600   10.8810   17.3630 C   0  0  0  0  0  3  0  0  0  0  0  0
   19.1510   12.1670   17.9500 C   0  0  0  0  0  0  0  0  0  0  0  0
   18.3060   12.8580   17.3190 O   0  0  0  0  0  0  0  0  0  0  0  0
   19.6050   12.5930   19.1940 O   0  0  0  0  0  0  0  0  0  0  0  0
   20.5200   12.9610   19.2880 H   0  0  0  0  0  0  0  0  0  0  0  0
   19.1770    9.6760   18.2000 C   0  0  0  0  0  3  0  0  0  0  0  0
   19.5150    9.8700   19.5550 O   0  0  0  0  0  0  0  0  0  0  0  0
   17.6660    9.4850   18.1200 C   0  0  0  0  0  3  0  0  0  0  0  0
   18.5270    9.2320   20.3410 C   0  0  0  0  0  3  0  0  0  0  0  0
   17.3480    8.8220   19.4440 C   0  0  0  0  0  3  0  0  0  0  0  0
   17.3110    8.6830   17.0220 O   0  0  0  0  0  0  0  0  0  0  0  0
   17.1000    9.2600   16.2460 H   0  0  0  0  0  0  0  0  0  0  0  0
   18.0690   10.1390   21.4150 N   0  0  0  0  0  0  0  0  0  0  0  0
   16.7270   10.3200   21.6190 C   0  0  0  0  0  3  0  0  0  0  0  0
   18.9670   10.7450   22.2600 C   0  0  0  0  0  0  0  0  0  0  0  0
   16.2680   11.1390   22.6460 C   0  0  0  0  0  3  0  0  0  0  0  0
   18.5280   11.5490   23.2680 N   0  0  0  0  0  0  0  0  0  0  0  0
   20.2070   10.5600   22.1210 O   0  0  0  0  0  0  0  0  0  0  0  0
   17.2010   11.7570   23.4710 C   0  0  0  0  0  0  0  0  0  0  0  0
   16.8150   12.5020   24.4110 O   0  0  0  0  0  0  0  0  0  0  0  0
   19.2140   12.0070   23.8860 H   0  0  0  0  0  0  0  0  0  0  0  0
   17.2520    7.4200   19.3350 O   0  0  0  0  0  0  0  0  0  0  0  0
   16.8490    7.1850   18.4620 H   0  0  0  0  0  0  0  0  0  0  0  0
  1 18  1  0
  1 15  1  0
  2  3  1  1
  2  1  1  0
  4  2  1  0
  4  5  1  0
  5  6  1  0
  7  8  1  1
  7  4  1  0
  9  7  2  0
 10  8  2  0
 11 12  2  0
 11  9  1  0
 12 10  1  0
 13 12  1  0
 14 13  1  0
 15 17  1  0
 16 15  1  0
 20 18  1  0
 19 18  2  0
 22 20  1  0
 20 21  1  1
 22 23  1  0
 23 25  1  0
 24 23  2  0
 25 26  1  0
 22 27  1  0
 27 28  1  1
 30 28  1  0
 29 32  1  0
 29 27  1  1
 31 29  1  6
 30 34  1  0
 31 43  1  0
 31 30  1  0
 33 32  1  0
 34 35  1  0
 34 36  1  0
 35 37  2  0
 36 38  1  0
 37 40  1  0
 38 40  1  0
 38 42  1  0
 39 36  2  0
 40 41  2  0
 44 43  1  0
M  END
>  <vina_score>  (2) 
-7.8739999999999997

>  <pose_id>  (2) 
2

$$$$

     RDKit          3D

 44 46  0  0  1  0  0  0  0  0999 V2000
   17.0260   11.5080   16.7460 C   0  0  0  0  0  3  0  0  0  0  0  0
   17.7720   10.9170   17.9850 C   0  0  0  0  0  3  0  0  0  0  0  0
   18.7460    9.8110   17.5210 C   0  0  0  0  0  1  0  0  0  0  0  0
   16.7770   10.3640   19.0510 C   0  0  0  0  0  3  0  0  0  0  0  0
   15.4780   10.8300   18.7900 O   0  0  0  0  0  0  0  0  0  0  0  0
   14.8890   10.0650   18.5730 H   0  0  0  0  0  0  0  0  0  0  0  0
   17.1550   10.7590   20.4600 C   0  0  0  0  0  0  0  0  0  0  0  0
   16.2350   10.6450   21.5150 C   0  0  0  0  0  3  0  0  0  0  0  0
   18.3990   11.2540   20.7060 N   0  0  0  0  0  0  0  0  0  0  0  0
   16.6160   11.0320   22.8000 C   0  0  0  0  0  3  0  0  0  0  0  0
   18.7880   11.6400   21.9510 C   0  0  0  0  0  3  0  0  0  0  0  0
   17.9020   11.5340   23.0260 C   0  0  0  0  0  0  0  0  0  0  0  0
   18.3050   11.9290   24.2990 O   0  0  0  0  0  0  0  0  0  0  0  0
   18.7060   11.2690   24.9180 H   0  0  0  0  0  0  0  0  0  0  0  0
   17.3630   10.7670   15.5260 N   0  0  0  0  0  0  0  0  0  0  0  0
   17.6990    9.8260   15.7770 H   0  0  0  0  0  0  0  0  0  0  0  0
   16.5250   10.6850   14.9310 H   0  0  0  0  0  0  0  0  0  0  0  0
   17.2930   12.9820   16.5410 C   0  0  0  0  0  0  0  0  0  0  0  0
   18.4210   13.4510   16.8570 O   0  0  0  0  0  0  0  0  0  0  0  0
   16.2790   13.8480   16.0060 N   0  0  0  0  0  0  0  0  0  0  0  0
   15.3750   13.4420   15.7250 H   0  0  0  0  0  0  0  0  0  0  0  0
   16.4890   15.2880   15.8460 C   0  0  0  0  0  3  0  0  0  0  0  0
   15.2670   16.0180   16.3240 C   0  0  0  0  0  0  0  0  0  0  0  0
   15.0750   16.1900   17.5590 O   0  0  0  0  0  0  0  0  0  0  0  0
   14.3470   16.5150   15.4050 O   0  0  0  0  0  0  0  0  0  0  0  0
   13.4350   16.1320   15.3610 H   0  0  0  0  0  0  0  0  0  0  0  0
   16.7850   15.6370   14.3720 C   0  0  0  0  0  3  0  0  0  0  0  0
   18.1720   15.8250   14.1940 O   0  0  0  0  0  0  0  0  0  0  0  0
   16.3390   14.5360   13.4150 C   0  0  0  0  0  3  0  0  0  0  0  0
   18.4950   15.4300   12.8750 C   0  0  0  0  0  3  0  0  0  0  0  0
   17.2910   14.7070   12.2500 C   0  0  0  0  0  3  0  0  0  0  0  0
   14.9960   14.7030   13.0370 O   0  0  0  0  0  0  0  0  0  0  0  0
   14.7920   15.6690   12.9590 H   0  0  0  0  0  0  0  0  0  0  0  0
   19.6800   14.5470   12.8860 N   0  0  0  0  0  0  0  0  0  0  0  0
   19.7070   13.4620   13.7200 C   0  0  0  0  0  3  0  0  0  0  0  0
   20.7250   14.7560   12.0190 C   0  0  0  0  0  0  0  0  0  0  0  0
   20.7950   12.5940   13.7240 C   0  0  0  0  0  3  0  0  0  0  0  0
   21.7940   13.9130   12.0150 N   0  0  0  0  0  0  0  0  0  0  0  0
   20.7060   15.7240   11.2090 O   0  0  0  0  0  0  0  0  0  0  0  0
   21.8470   12.8430   12.8500 C   0  0  0  0  0  0  0  0  0  0  0  0
   22.8440   12.0730   12.8300 O   0  0  0  0  0  0  0  0  0  0  0  0
   22.5760   14.0890   11.3670 H   0  0  0  0  0  0  0  0  0  0  0  0
   16.7280   15.4620   11.2010 O   0  0  0  0  0  0  0  0  0  0  0  0
   15.9210   15.9310   11.5290 H   0  0  0  0  0  0  0  0  0  0  0  0
  1 18  1  0
  1  2  1  0
  2  3  1  0
  4  2  1  1
  4  5  1  0
  4  7  1  0
  6  5  1  0
  7  9  2  0
  7  8  1  0
  8 10  2  0
  9 11  1  0
 10 12  1  0
 11 12  2  0
 12 13  1  0
 13 14  1  0
 15 16  1  0
  1 15  1  0
 17 15  1  0
 18 19  2  0
 20 18  1  0
 20 21  1  0
 22 20  1  0
 22 23  1  1
 23 24  2  0
 25 23  1  0
 26 25  1  0
 27 22  1  0
 27 28  1  0
 29 32  1  0
 29 27  1  0
 30 34  1  0
 30 28  1  0
 31 43  1  0
 31 30  1  0
 31 29  1  6
 33 32  1  0
 34 35  1  0
 35 37  2  0
 36 34  1  0
 38 36  1  0
 38 40  1  0
 39 36  2  0
 40 37  1  0
 41 40  2  0
 42 38  1  0
 43 44  1  0
M  END
>  <vina_score>  (3) 
-7.7199999999999998

>  <pose_id>  (3) 
3

$$$$

     RDKit          3D

 44 46  0  0  1  0  0  0  0  0999 V2000
   16.7260   12.8480   14.9740 C   0  0  0  0  0  3  0  0  0  0  0  0
   16.5720   14.3560   14.5980 C   0  0  0  0  0  3  0  0  0  0  0  0
   15.6520   15.0530   15.6260 C   0  0  0  0  0  1  0  0  0  0  0  0
   16.0170   14.5380   13.1510 C   0  0  0  0  0  3  0  0  0  0  0  0
   15.4240   13.3450   12.7060 O   0  0  0  0  0  0  0  0  0  0  0  0
   15.9040   13.0150   11.9060 H   0  0  0  0  0  0  0  0  0  0  0  0
   17.0890   14.9380   12.1630 C   0  0  0  0  0  0  0  0  0  0  0  0
   16.7640   15.6120   10.9760 C   0  0  0  0  0  3  0  0  0  0  0  0
   18.3890   14.6180   12.4180 N   0  0  0  0  0  0  0  0  0  0  0  0
   17.7800   15.9540   10.0810 C   0  0  0  0  0  3  0  0  0  0  0  0
   19.3910   14.9380   11.5580 C   0  0  0  0  0  3  0  0  0  0  0  0
   19.1070   15.6160   10.3710 C   0  0  0  0  0  0  0  0  0  0  0  0
   20.1370   15.9440    9.4930 O   0  0  0  0  0  0  0  0  0  0  0  0
   19.9400   16.1040    8.5360 H   0  0  0  0  0  0  0  0  0  0  0  0
   15.5120   12.3400   15.6230 N   0  0  0  0  0  0  0  0  0  0  0  0
   15.3130   12.9000   16.4640 H   0  0  0  0  0  0  0  0  0  0  0  0
   14.7190   12.4080   14.9690 H   0  0  0  0  0  0  0  0  0  0  0  0
   17.9280   12.5770   15.8520 C   0  0  0  0  0  0  0  0  0  0  0  0
   18.7040   13.5280   16.1390 O   0  0  0  0  0  0  0  0  0  0  0  0
   18.1960   11.2550   16.3460 N   0  0  0  0  0  0  0  0  0  0  0  0
   17.5350   10.4960   16.1260 H   0  0  0  0  0  0  0  0  0  0  0  0
   19.3800   10.9490   17.1520 C   0  0  0  0  0  3  0  0  0  0  0  0
   20.5470   10.7080   16.2380 C   0  0  0  0  0  0  0  0  0  0  0  0
   20.8500    9.5330   15.8970 O   0  0  0  0  0  0  0  0  0  0  0  0
   21.2920   11.7820   15.7600 O   0  0  0  0  0  0  0  0  0  0  0  0
   21.6940   12.4270   16.3940 H   0  0  0  0  0  0  0  0  0  0  0  0
   19.1290    9.7160   18.0460 C   0  0  0  0  0  3  0  0  0  0  0  0
   19.5160   10.0000   19.3720 O   0  0  0  0  0  0  0  0  0  0  0  0
   17.6600    9.3050   18.0680 C   0  0  0  0  0  3  0  0  0  0  0  0
   18.6800    9.2530   20.2340 C   0  0  0  0  0  3  0  0  0  0  0  0
   17.5220    8.6470   19.4250 C   0  0  0  0  0  3  0  0  0  0  0  0
   17.3610    8.4260   17.0140 O   0  0  0  0  0  0  0  0  0  0  0  0
   17.7980    8.7430   16.1840 H   0  0  0  0  0  0  0  0  0  0  0  0
   18.1600   10.1190   21.3130 N   0  0  0  0  0  0  0  0  0  0  0  0
   16.8070   10.2690   21.4660 C   0  0  0  0  0  3  0  0  0  0  0  0
   19.0090   10.7170   22.2120 C   0  0  0  0  0  0  0  0  0  0  0  0
   16.2890   11.0490   22.4950 C   0  0  0  0  0  3  0  0  0  0  0  0
   18.5130   11.4820   23.2230 N   0  0  0  0  0  0  0  0  0  0  0  0
   20.2580   10.5590   22.1210 O   0  0  0  0  0  0  0  0  0  0  0  0
   17.1750   11.6590   23.3770 C   0  0  0  0  0  0  0  0  0  0  0  0
   16.7350   12.3690   24.3210 O   0  0  0  0  0  0  0  0  0  0  0  0
   19.1630   11.9340   23.8830 H   0  0  0  0  0  0  0  0  0  0  0  0
   17.6250    7.2440   19.3550 O   0  0  0  0  0  0  0  0  0  0  0  0
   18.0780    6.9880   18.5130 H   0  0  0  0  0  0  0  0  0  0  0  0
  1 15  1  0
  1 18  1  0
  2  1  1  0
  2  3  1  1
  4  5  1  0
  4  2  1  0
  6  5  1  0
  7  9  1  1
  7  4  1  0
  8  7  2  0
 10 12  2  0
 10  8  1  0
 11  9  2  0
 12 11  1  0
 13 12  1  0
 14 13  1  0
 15 16  1  0
 17 15  1  0
 18 19  2  0
 20 18  1  0
 20 22  1  0
 20 21  1  0
 22 23  1  0
 24 23  2  0
 25 23  1  0
 25 26  1  0
 27 22  1  1
 29 27  1  0
 27 28  1  0
 28 30  1  0
 29 32  1  0
 29 31  1  0
 30 34  1  0
 31 43  1  0
 31 30  1  1
 33 32  1  0
 34 35  1  0
 34 36  1  0
 35 37  2  0
 36 38  1  0
 37 40  1  0
 38 40  1  0
 38 42  1  0
 39 36  2  0
 40 41  2  0
 44 43  1  0
M  END
>  <vina_score>  (4) 
-7.7039999999999997

>  <pose_id>  (4) 
4

$$$$

     RDKit          3D

 44 46  0  0  1  0  0  0  0  0999 V2000
   17.2150   13.1760   16.2320 C   0  0  0  0  0  3  0  0  0  0  0  0
   16.9820   12.0690   17.3090 C   0  0  0  0  0  3  0  0  0  0  0  0
   15.5770   12.2380   17.9290 C   0  0  0  0  0  1  0  0  0  0  0  0
   18.0810   12.0980   18.4160 C   0  0  0  0  0  3  0  0  0  0  0  0
   19.2340   12.7410   17.9380 O   0  0  0  0  0  0  0  0  0  0  0  0
   19.0560   13.1130   17.0380 H   0  0  0  0  0  0  0  0  0  0  0  0
   18.4640   10.7150   18.8920 C   0  0  0  0  0  0  0  0  0  0  0  0
   18.6760   10.4520   20.2540 C   0  0  0  0  0  3  0  0  0  0  0  0
   18.6300    9.7150   17.9820 N   0  0  0  0  0  0  0  0  0  0  0  0
   19.0420    9.1660   20.6550 C   0  0  0  0  0  3  0  0  0  0  0  0
   18.9900    8.4580   18.3520 C   0  0  0  0  0  3  0  0  0  0  0  0
   19.2020    8.1560   19.6990 C   0  0  0  0  0  0  0  0  0  0  0  0
   19.5690    6.8660   20.0740 O   0  0  0  0  0  0  0  0  0  0  0  0
   20.4970    6.6810   20.3640 H   0  0  0  0  0  0  0  0  0  0  0  0
   15.9460   13.7920   15.8270 N   0  0  0  0  0  0  0  0  0  0  0  0
   15.3040   13.8160   16.6320 H   0  0  0  0  0  0  0  0  0  0  0  0
   16.1200   14.7520   15.4970 H   0  0  0  0  0  0  0  0  0  0  0  0
   17.9520   12.6710   15.0120 C   0  0  0  0  0  0  0  0  0  0  0  0
   17.9090   13.3450   13.9470 O   0  0  0  0  0  0  0  0  0  0  0  0
   18.6830   11.4350   15.0520 N   0  0  0  0  0  0  0  0  0  0  0  0
   18.7320   10.9130   15.9390 H   0  0  0  0  0  0  0  0  0  0  0  0
   19.3620   10.8920   13.8740 C   0  0  0  0  0  3  0  0  0  0  0  0
   18.4780    9.8630   13.2290 C   0  0  0  0  0  0  0  0  0  0  0  0
   17.4620   10.2230   12.5750 O   0  0  0  0  0  0  0  0  0  0  0  0
   18.7840    8.5110   13.3450 O   0  0  0  0  0  0  0  0  0  0  0  0
   19.4740    8.1070   12.7590 H   0  0  0  0  0  0  0  0  0  0  0  0
   20.7200   10.2710   14.2640 C   0  0  0  0  0  3  0  0  0  0  0  0
   21.4960   10.0530   13.1060 O   0  0  0  0  0  0  0  0  0  0  0  0
   21.5220   11.1700   15.1990 C   0  0  0  0  0  3  0  0  0  0  0  0
   22.8570   10.1920   13.4660 C   0  0  0  0  0  3  0  0  0  0  0  0
   22.9510   10.7820   14.8830 C   0  0  0  0  0  3  0  0  0  0  0  0
   21.1890   10.9330   16.5430 O   0  0  0  0  0  0  0  0  0  0  0  0
   20.9640   11.7900   16.9840 H   0  0  0  0  0  0  0  0  0  0  0  0
   23.5530   11.0620   12.4960 N   0  0  0  0  0  0  0  0  0  0  0  0
   23.6990   12.3960   12.7670 C   0  0  0  0  0  3  0  0  0  0  0  0
   24.1220   10.5400   11.3590 C   0  0  0  0  0  0  0  0  0  0  0  0
   24.3820   13.2310   11.8880 C   0  0  0  0  0  3  0  0  0  0  0  0
   24.7930   11.3480   10.4920 N   0  0  0  0  0  0  0  0  0  0  0  0
   24.0400    9.3060   11.1070 O   0  0  0  0  0  0  0  0  0  0  0  0
   24.9290   12.6770   10.7350 C   0  0  0  0  0  0  0  0  0  0  0  0
   25.5550   13.4080    9.9220 O   0  0  0  0  0  0  0  0  0  0  0  0
   25.2040   10.9440    9.6380 H   0  0  0  0  0  0  0  0  0  0  0  0
   23.4690    9.8420   15.7960 O   0  0  0  0  0  0  0  0  0  0  0  0
   23.8960   10.3170   16.5520 H   0  0  0  0  0  0  0  0  0  0  0  0
  1 18  1  0
  1  2  1  0
  2  3  1  1
  4  2  1  0
  4  5  1  0
  4  7  1  0
  6  5  1  0
  7  8  1  1
  8 10  2  0
  9 11  1  0
  9  7  2  0
 11 12  2  0
 12 13  1  0
 12 10  1  0
 13 14  1  0
  1 15  1  0
 15 16  1  0
 17 15  1  0
 20 18  1  0
 19 18  2  0
 20 21  1  0
 22 23  1  0
 22 20  1  0
 23 25  1  0
 24 23  2  0
 26 25  1  0
 27 22  1  1
 27 29  1  0
 30 28  1  0
 28 27  1  0
 29 32  1  0
 30 34  1  0
 30 31  1  0
 31 29  1  1
 31 43  1  0
 32 33  1  0
 34 35  1  0
 36 34  1  0
 37 35  2  0
 38 40  1  0
 38 36  1  0
 39 36  2  0
 40 37  1  0
 41 40  2  0
 42 38  1  0
 43 44  1  0
M  END
>  <vina_score>  (5) 
-7.6959999999999997

>  <pose_id>  (5) 
5

$$$$
