
     RDKit          3D

 23 24  0  0  0  0  0  0  0  0999 V2000
   17.7570   12.8270   13.6780 C   0  0  0  0  0  2  0  0  0  0  0  0
   17.7580   14.2870   13.5480 N   0  0  0  0  0  0  0  0  0  0  0  0
   17.9840   15.1410   14.7130 C   0  0  0  0  0  1  0  0  0  0  0  0
   17.6910   14.8870   12.2450 C   0  0  0  0  0  0  0  0  0  0  0  0
   16.4380   15.1220   11.6620 C   0  0  0  0  0  3  0  0  0  0  0  0
   18.8670   15.2520   11.5520 C   0  0  0  0  0  0  0  0  0  0  0  0
   16.3430   15.7420   10.4160 C   0  0  0  0  0  3  0  0  0  0  0  0
   18.7610   15.8890   10.2950 C   0  0  0  0  0  0  0  0  0  0  0  0
   20.2370   15.0710   12.1760 C   0  0  0  0  0  2  0  0  0  0  0  0
   17.4980   16.1310    9.7370 C   0  0  0  0  0  3  0  0  0  0  0  0
   19.9440   16.2760    9.5830 N   0  0  0  0  0  0  0  0  0  0  0  0
   21.3250   14.8190   11.1250 C   0  0  0  0  0  2  0  0  0  0  0  0
   21.2290   15.8200   10.0130 C   0  0  0  0  0  0  0  0  0  0  0  0
   22.2690   16.2040    9.4150 O   0  0  0  0  0  0  0  0  0  0  0  0
   19.8680   16.8870    8.7570 H   0  0  0  0  0  0  0  0  0  0  0  0
   19.1260   12.3370   14.1570 C   0  0  0  0  0  2  0  0  0  0  0  0
   19.6900   11.2710   13.2140 C   0  0  0  0  0  2  0  0  0  0  0  0
   21.1130   11.5170   12.9600 C   0  0  0  0  0  0  0  0  0  0  0  0
   22.2830   11.7230   12.7530 C   0  0  0  0  0  0  0  0  0  0  0  0
   23.7120   11.9770   12.4960 C   0  0  2  0  0  0  0  0  0  0  0  0
   24.5350   10.7900   13.0230 C   0  0  0  0  0  1  0  0  0  0  0  0
   24.1300   13.2670   13.2220 C   0  0  0  0  0  1  0  0  0  0  0  0
   23.9290   12.1340   10.9820 C   0  0  0  0  0  1  0  0  0  0  0  0
  1 16  1  0
  2  1  1  0
  2  3  1  0
  4  2  1  0
  5  4  1  0
  6  9  1  0
  6  4  2  0
  7  5  2  0
  8  6  1  0
 10  8  2  0
 10  7  1  0
 11 13  1  0
 11  8  1  0
 12  9  1  0
 13 12  1  0
 14 13  2  0
 15 11  1  0
 17 16  1  0
 18 17  1  0
 19 18  3  0
 20 19  1  0
 20 21  1  1
 20 22  1  0
 23 20  1  0
M  RAD  8   1   3   3   2   5   2   7   2   9   3  10   2  12   3  16   3
M  RAD  4  17   3  21   2  22   2  23   2
M  END
>  <vina_score>  (1) 
-6.4009999999999998

>  <pose_id>  (1) 
1

$$$$

     RDKit          3D

 23 24  0  0  0  0  0  0  0  0999 V2000
   18.9530    9.9990   18.3960 C   0  0  0  0  0  2  0  0  0  0  0  0
   18.4510    8.9260   19.2600 N   0  0  0  0  0  0  0  0  0  0  0  0
   19.2140    7.6910   19.4380 C   0  0  0  0  0  1  0  0  0  0  0  0
   17.2800    9.1440   20.0600 C   0  0  0  0  0  0  0  0  0  0  0  0
   16.0900    8.4830   19.7290 C   0  0  0  0  0  3  0  0  0  0  0  0
   17.3160   10.0060   21.1810 C   0  0  0  0  0  0  0  0  0  0  0  0
   14.9490    8.6440   20.5160 C   0  0  0  0  0  3  0  0  0  0  0  0
   16.1590   10.1550   21.9760 C   0  0  0  0  0  0  0  0  0  0  0  0
   18.6010   10.6890   21.6070 C   0  0  0  0  0  2  0  0  0  0  0  0
   14.9830    9.4710   21.6390 C   0  0  0  0  0  3  0  0  0  0  0  0
   16.1810   11.0170   23.1240 N   0  0  0  0  0  0  0  0  0  0  0  0
   18.3410   12.0380   22.2890 C   0  0  0  0  0  2  0  0  0  0  0  0
   17.2790   11.9050   23.3390 C   0  0  0  0  0  0  0  0  0  0  0  0
   17.3190   12.6220   24.3730 O   0  0  0  0  0  0  0  0  0  0  0  0
   15.4010   10.9940   23.7950 H   0  0  0  0  0  0  0  0  0  0  0  0
   17.8240   10.5430   17.5160 C   0  0  0  0  0  2  0  0  0  0  0  0
   17.4200   11.9540   17.9530 C   0  0  0  0  0  2  0  0  0  0  0  0
   16.9270   12.7210   16.8040 C   0  0  0  0  0  0  0  0  0  0  0  0
   16.5240   13.3480   15.8570 C   0  0  0  0  0  0  0  0  0  0  0  0
   16.0310   14.1190   14.7010 C   0  0  2  0  0  0  0  0  0  0  0  0
   15.1920   13.1950   13.8040 C   0  0  0  0  0  1  0  0  0  0  0  0
   17.2340   14.6650   13.9130 C   0  0  0  0  0  1  0  0  0  0  0  0
   15.1660   15.2850   15.2090 C   0  0  0  0  0  1  0  0  0  0  0  0
  1  2  1  0
  2  3  1  0
  2  4  1  0
  4  6  2  0
  5  4  1  0
  5  7  2  0
  6  9  1  0
  6  8  1  0
  7 10  1  0
  8 11  1  0
  9 12  1  0
 10  8  2  0
 11 13  1  0
 11 15  1  0
 12 13  1  0
 13 14  2  0
 16 17  1  0
 16  1  1  0
 18 17  1  0
 19 18  3  0
 20 23  1  1
 20 19  1  0
 21 20  1  0
 22 20  1  0
M  RAD  8   1   3   3   2   5   2   7   2   9   3  10   2  12   3  16   3
M  RAD  4  17   3  21   2  22   2  23   2
M  END
>  <vina_score>  (2) 
-6.3120000000000003

>  <pose_id>  (2) 
2

$$$$

     RDKit          3D

 23 24  0  0  0  0  0  0  0  0999 V2000
   19.2080    9.8430   18.5850 C   0  0  0  0  0  2  0  0  0  0  0  0
   18.5870    8.8080   19.4180 N   0  0  0  0  0  0  0  0  0  0  0  0
   19.2800    7.5480   19.6850 C   0  0  0  0  0  1  0  0  0  0  0  0
   17.3600    9.0900   20.1070 C   0  0  0  0  0  0  0  0  0  0  0  0
   16.1740    8.4800   19.6730 C   0  0  0  0  0  3  0  0  0  0  0  0
   17.3340    9.9610   21.2200 C   0  0  0  0  0  0  0  0  0  0  0  0
   14.9760    8.7030   20.3500 C   0  0  0  0  0  3  0  0  0  0  0  0
   16.1170   10.1730   21.9050 C   0  0  0  0  0  0  0  0  0  0  0  0
   18.6050   10.5900   21.7570 C   0  0  0  0  0  2  0  0  0  0  0  0
   14.9460    9.5400   21.4660 C   0  0  0  0  0  3  0  0  0  0  0  0
   16.0750   11.0460   23.0430 N   0  0  0  0  0  0  0  0  0  0  0  0
   18.3480   11.9570   22.4030 C   0  0  0  0  0  2  0  0  0  0  0  0
   17.1900   11.8850   23.3520 C   0  0  0  0  0  0  0  0  0  0  0  0
   17.1680   12.6110   24.3810 O   0  0  0  0  0  0  0  0  0  0  0  0
   15.2370   11.0670   23.6410 H   0  0  0  0  0  0  0  0  0  0  0  0
   20.5510    9.3490   18.0400 C   0  0  0  0  0  2  0  0  0  0  0  0
   21.7120   10.1570   18.6250 C   0  0  0  0  0  2  0  0  0  0  0  0
   22.6770   10.4950   17.5730 C   0  0  0  0  0  0  0  0  0  0  0  0
   23.4680   10.7700   16.7070 C   0  0  0  0  0  0  0  0  0  0  0  0
   24.4360   11.1110   15.6470 C   0  0  2  0  0  0  0  0  0  0  0  0
   24.4230   10.0030   14.5820 C   0  0  0  0  0  1  0  0  0  0  0  0
   25.8380   11.2260   16.2680 C   0  0  0  0  0  1  0  0  0  0  0  0
   24.0320   12.4530   15.0130 C   0  0  0  0  0  1  0  0  0  0  0  0
  1  2  1  0
  2  3  1  0
  2  4  1  0
  4  6  2  0
  5  4  1  0
  5  7  2  0
  6  9  1  0
  6  8  1  0
  7 10  1  0
  8 11  1  0
  9 12  1  0
 10  8  2  0
 11 13  1  0
 11 15  1  0
 12 13  1  0
 13 14  2  0
 16  1  1  0
 16 17  1  0
 18 17  1  0
 19 18  3  0
 20 22  1  1
 20 19  1  0
 21 20  1  0
 23 20  1  0
M  RAD  8   1   3   3   2   5   2   7   2   9   3  10   2  12   3  16   3
M  RAD  4  17   3  21   2  22   2  23   2
M  END
>  <vina_score>  (3) 
-6.1859999999999999

>  <pose_id>  (3) 
3

$$$$

     RDKit          3D

 23 24  0  0  0  0  0  0  0  0999 V2000
   16.5940   13.7710   15.4380 C   0  0  0  0  0  2  0  0  0  0  0  0
   16.8690   13.2060   14.1140 N   0  0  0  0  0  0  0  0  0  0  0  0
   16.9330   11.7580   13.9180 C   0  0  0  0  0  1  0  0  0  0  0  0
   16.9230   14.0680   12.9680 C   0  0  0  0  0  0  0  0  0  0  0  0
   15.7300   14.4350   12.3290 C   0  0  0  0  0  3  0  0  0  0  0  0
   18.1570   14.5590   12.4850 C   0  0  0  0  0  0  0  0  0  0  0  0
   15.7500   15.3050   11.2390 C   0  0  0  0  0  3  0  0  0  0  0  0
   18.1660   15.4480   11.3870 C   0  0  0  0  0  0  0  0  0  0  0  0
   19.4610   14.2360   13.1870 C   0  0  0  0  0  2  0  0  0  0  0  0
   16.9620   15.8170   10.7730 C   0  0  0  0  0  3  0  0  0  0  0  0
   19.4090   15.9660   10.8910 N   0  0  0  0  0  0  0  0  0  0  0  0
   20.6490   14.2010   12.2160 C   0  0  0  0  0  2  0  0  0  0  0  0
   20.6510   15.4150   11.3370 C   0  0  0  0  0  0  0  0  0  0  0  0
   21.7390   15.9060   10.9380 O   0  0  0  0  0  0  0  0  0  0  0  0
   19.4070   16.7380   10.2100 H   0  0  0  0  0  0  0  0  0  0  0  0
   17.0530   12.8040   16.5330 C   0  0  0  0  0  2  0  0  0  0  0  0
   15.8850   12.4060   17.4390 C   0  0  0  0  0  2  0  0  0  0  0  0
   16.3830   11.7760   18.6660 C   0  0  0  0  0  0  0  0  0  0  0  0
   16.7970   11.2580   19.6730 C   0  0  0  0  0  0  0  0  0  0  0  0
   17.3040   10.6280   20.9060 C   0  0  2  0  0  0  0  0  0  0  0  0
   18.0400    9.3300   20.5390 C   0  0  0  0  0  1  0  0  0  0  0  0
   16.1170   10.3140   21.8320 C   0  0  0  0  0  1  0  0  0  0  0  0
   18.2700   11.6000   21.6040 C   0  0  0  0  0  1  0  0  0  0  0  0
  1 16  1  0
  2  1  1  0
  3  2  1  0
  4  2  1  0
  5  4  1  0
  6  4  2  0
  6  9  1  0
  7  5  2  0
  8  6  1  0
 10  7  1  0
 10  8  2  0
 11 13  1  0
 11  8  1  0
 12  9  1  0
 13 12  1  0
 14 13  2  0
 15 11  1  0
 16 17  1  0
 17 18  1  0
 18 19  3  0
 19 20  1  0
 20 23  1  1
 20 22  1  0
 21 20  1  0
M  RAD  8   1   3   3   2   5   2   7   2   9   3  10   2  12   3  16   3
M  RAD  4  17   3  21   2  22   2  23   2
M  END
>  <vina_score>  (4) 
-6.1059999999999999

>  <pose_id>  (4) 
4

$$$$
