
     RDKit          3D

 23 24  0  0  0  0  0  0  0  0999 V2000
   14.5840   10.8310   19.7330 C   0  0  0  0  0  2  0  0  0  0  0  0
   14.6840   11.9230   18.7110 C   0  0  0  0  0  3  0  0  0  0  0  0
   15.8220   13.0770   16.9310 C   0  0  0  0  0  0  0  0  0  0  0  0
   15.7460   12.0300   17.9130 C   0  0  0  0  0  3  0  0  0  0  0  0
   15.8850   13.9550   16.1070 C   0  0  0  0  0  0  0  0  0  0  0  0
   15.9640   15.0290   15.0990 C   0  0  2  0  0  0  0  0  0  0  0  0
   15.0160   16.1690   15.5070 C   0  0  0  0  0  1  0  0  0  0  0  0
   15.5460   14.4650   13.7310 C   0  0  0  0  0  1  0  0  0  0  0  0
   17.4100   15.5490   15.0330 C   0  0  0  0  0  1  0  0  0  0  0  0
   15.8950   10.2230   19.9540 N   0  0  0  0  0  0  0  0  0  0  0  0
   16.2060    9.4550   19.3440 H   0  0  0  0  0  0  0  0  0  0  0  0
   16.7570   10.6790   21.0070 C   0  0  0  0  0  0  0  0  0  0  0  0
   16.1960   10.9670   22.2600 C   0  0  0  0  0  3  0  0  0  0  0  0
   18.1490   10.8450   20.8130 C   0  0  0  0  0  0  0  0  0  0  0  0
   17.0030   11.3640   23.3260 C   0  0  0  0  0  3  0  0  0  0  0  0
   18.9650   11.2450   21.9020 C   0  0  0  0  0  0  0  0  0  0  0  0
   18.7560   10.6580   19.5590 C   0  0  0  0  0  3  0  0  0  0  0  0
   18.3810   11.4950   23.1530 C   0  0  0  0  0  3  0  0  0  0  0  0
   20.3110   11.3990   21.7300 N   0  0  0  0  0  0  0  0  0  0  0  0
   20.1320   10.8260   19.4160 C   0  0  0  0  0  3  0  0  0  0  0  0
   20.9020   11.1950   20.5190 C   0  0  0  0  0  0  0  0  0  0  0  0
   22.1460   11.3450   20.3930 O   0  0  0  0  0  0  0  0  0  0  0  0
   20.8920   11.6760   22.5330 H   0  0  0  0  0  0  0  0  0  0  0  0
  1 10  1  0
  2  1  1  0
  3  4  1  0
  4  2  2  0
  5  3  3  0
  6  7  1  1
  6  5  1  0
  8  6  1  0
  9  6  1  0
 10 12  1  0
 11 10  1  0
 12 13  1  0
 13 15  2  0
 14 12  2  0
 14 16  1  0
 16 18  2  0
 17 14  1  0
 18 15  1  0
 19 16  1  0
 19 23  1  0
 20 17  2  0
 20 21  1  0
 21 19  1  0
 22 21  2  0
M  END
>  <vina_score>  (1) 
-7.3529999999999998

>  <pose_id>  (1) 
1

$$$$

     RDKit          3D

 23 24  0  0  0  0  0  0  0  0999 V2000
   19.2260   10.0620   17.8570 C   0  0  0  0  0  2  0  0  0  0  0  0
   18.6260   11.3980   17.5380 C   0  0  0  0  0  3  0  0  0  0  0  0
   16.8670   12.7900   16.6640 C   0  0  0  0  0  0  0  0  0  0  0  0
   17.4320   11.5000   16.9540 C   0  0  0  0  0  3  0  0  0  0  0  0
   16.3920   13.8710   16.4220 C   0  0  0  0  0  0  0  0  0  0  0  0
   15.8110   15.1940   16.1240 C   0  0  2  0  0  0  0  0  0  0  0  0
   16.9420   16.2320   16.0490 C   0  0  0  0  0  1  0  0  0  0  0  0
   14.8260   15.5720   17.2430 C   0  0  0  0  0  1  0  0  0  0  0  0
   15.0720   15.1250   14.7770 C   0  0  0  0  0  1  0  0  0  0  0  0
   19.1790    9.8170   19.2970 N   0  0  0  0  0  0  0  0  0  0  0  0
   20.0580    9.7610   19.8290 H   0  0  0  0  0  0  0  0  0  0  0  0
   17.9290    9.6550   19.9830 C   0  0  0  0  0  0  0  0  0  0  0  0
   16.9910    8.7490   19.4680 C   0  0  0  0  0  3  0  0  0  0  0  0
   17.6230   10.3820   21.1580 C   0  0  0  0  0  0  0  0  0  0  0  0
   15.7840    8.5210   20.1300 C   0  0  0  0  0  3  0  0  0  0  0  0
   16.3960   10.1430   21.8290 C   0  0  0  0  0  0  0  0  0  0  0  0
   18.4830   11.3660   21.6730 C   0  0  0  0  0  3  0  0  0  0  0  0
   15.4890    9.2070   21.3080 C   0  0  0  0  0  3  0  0  0  0  0  0
   16.0930   10.8320   22.9690 N   0  0  0  0  0  0  0  0  0  0  0  0
   18.1440   12.0540   22.8380 C   0  0  0  0  0  3  0  0  0  0  0  0
   16.9380   11.7700   23.4810 C   0  0  0  0  0  0  0  0  0  0  0  0
   16.6300   12.3880   24.5340 O   0  0  0  0  0  0  0  0  0  0  0  0
   15.2050   10.6370   23.4530 H   0  0  0  0  0  0  0  0  0  0  0  0
  1 10  1  0
  2  1  1  0
  3  4  1  0
  4  2  2  0
  5  3  3  0
  6  5  1  0
  6  8  1  1
  7  6  1  0
  9  6  1  0
 10 11  1  0
 10 12  1  0
 12 14  1  0
 13 12  2  0
 13 15  1  0
 14 17  1  0
 14 16  2  0
 15 18  2  0
 16 19  1  0
 17 20  2  0
 18 16  1  0
 19 23  1  0
 19 21  1  0
 20 21  1  0
 21 22  2  0
M  END
>  <vina_score>  (2) 
-7.1840000000000002

>  <pose_id>  (2) 
2

$$$$

     RDKit          3D

 23 24  0  0  0  0  0  0  0  0999 V2000
   20.2210    8.3050   18.8120 C   0  0  0  0  0  2  0  0  0  0  0  0
   21.1760    8.9680   17.8660 C   0  0  0  0  0  3  0  0  0  0  0  0
   23.3030    9.9650   17.3350 C   0  0  0  0  0  0  0  0  0  0  0  0
   22.3950    9.3390   18.2580 C   0  0  0  0  0  3  0  0  0  0  0  0
   24.0650   10.4880   16.5610 C   0  0  0  0  0  0  0  0  0  0  0  0
   24.9960   11.1300   15.6130 C   0  0  2  0  0  0  0  0  0  0  0  0
   24.9010   10.4140   14.2560 C   0  0  0  0  0  1  0  0  0  0  0  0
   26.4270   11.0200   16.1650 C   0  0  0  0  0  1  0  0  0  0  0  0
   24.6080   12.6090   15.4540 C   0  0  0  0  0  1  0  0  0  0  0  0
   19.7650    9.2590   19.8210 N   0  0  0  0  0  0  0  0  0  0  0  0
   20.4430    9.9090   20.2450 H   0  0  0  0  0  0  0  0  0  0  0  0
   18.3920    9.3070   20.2320 C   0  0  0  0  0  0  0  0  0  0  0  0
   17.4530    8.5320   19.5350 C   0  0  0  0  0  3  0  0  0  0  0  0
   17.9640   10.1110   21.3160 C   0  0  0  0  0  0  0  0  0  0  0  0
   16.1160    8.5090   19.9320 C   0  0  0  0  0  3  0  0  0  0  0  0
   16.6040   10.0790   21.7170 C   0  0  0  0  0  0  0  0  0  0  0  0
   18.8400   10.9730   21.9970 C   0  0  0  0  0  3  0  0  0  0  0  0
   15.6920    9.2700   21.0210 C   0  0  0  0  0  3  0  0  0  0  0  0
   16.1820   10.8420   22.7670 N   0  0  0  0  0  0  0  0  0  0  0  0
   18.3770   11.7420   23.0630 C   0  0  0  0  0  3  0  0  0  0  0  0
   17.0360   11.6610   23.4420 C   0  0  0  0  0  0  0  0  0  0  0  0
   16.6150   12.3530   24.4060 O   0  0  0  0  0  0  0  0  0  0  0  0
   15.1940   10.7970   23.0570 H   0  0  0  0  0  0  0  0  0  0  0  0
  1 10  1  0
  2  4  2  0
  2  1  1  0
  3  4  1  0
  5  3  3  0
  6  8  1  1
  6  5  1  0
  7  6  1  0
  9  6  1  0
 10 12  1  0
 10 11  1  0
 12 14  1  0
 13 15  1  0
 13 12  2  0
 14 16  2  0
 14 17  1  0
 15 18  2  0
 16 19  1  0
 17 20  2  0
 18 16  1  0
 19 23  1  0
 19 21  1  0
 20 21  1  0
 21 22  2  0
M  END
>  <vina_score>  (3) 
-7.1200000000000001

>  <pose_id>  (3) 
3

$$$$

     RDKit          3D

 23 24  0  0  0  0  0  0  0  0999 V2000
   20.9990   10.5340   20.7960 C   0  0  0  0  0  2  0  0  0  0  0  0
   21.8970   10.8910   19.6500 C   0  0  0  0  0  3  0  0  0  0  0  0
   23.2840   10.3120   17.7690 C   0  0  0  0  0  0  0  0  0  0  0  0
   22.4330    9.9520   18.8700 C   0  0  0  0  0  3  0  0  0  0  0  0
   23.9970   10.6140   16.8440 C   0  0  0  0  0  0  0  0  0  0  0  0
   24.8680   10.9820   15.7130 C   0  0  2  0  0  0  0  0  0  0  0  0
   26.3360   10.8920   16.1620 C   0  0  0  0  0  1  0  0  0  0  0  0
   24.5410   12.4190   15.2740 C   0  0  0  0  0  1  0  0  0  0  0  0
   24.6160   10.0080   14.5490 C   0  0  0  0  0  1  0  0  0  0  0  0
   20.0070   11.5870   21.0080 N   0  0  0  0  0  0  0  0  0  0  0  0
   20.2310   12.5550   20.7380 H   0  0  0  0  0  0  0  0  0  0  0  0
   18.7260   11.2950   21.5850 C   0  0  0  0  0  0  0  0  0  0  0  0
   18.4660   11.7190   22.8970 C   0  0  0  0  0  3  0  0  0  0  0  0
   17.7270   10.5940   20.8680 C   0  0  0  0  0  0  0  0  0  0  0  0
   17.2170   11.5020   23.4800 C   0  0  0  0  0  3  0  0  0  0  0  0
   16.4580   10.3810   21.4650 C   0  0  0  0  0  0  0  0  0  0  0  0
   17.9570   10.0690   19.5860 C   0  0  0  0  0  3  0  0  0  0  0  0
   16.2140   10.8440   22.7670 C   0  0  0  0  0  3  0  0  0  0  0  0
   15.4820    9.7150   20.7800 N   0  0  0  0  0  0  0  0  0  0  0  0
   16.9410    9.3910   18.9140 C   0  0  0  0  0  3  0  0  0  0  0  0
   15.6990    9.2250   19.5270 C   0  0  0  0  0  0  0  0  0  0  0  0
   14.7780    8.6150   18.9220 O   0  0  0  0  0  0  0  0  0  0  0  0
   14.5610    9.5800   21.2200 H   0  0  0  0  0  0  0  0  0  0  0  0
  1 10  1  0
  2  1  1  0
  3  4  1  0
  4  2  2  0
  5  3  3  0
  6  7  1  1
  6  5  1  0
  8  6  1  0
  9  6  1  0
 10 12  1  0
 11 10  1  0
 12 13  1  0
 13 15  2  0
 14 16  1  0
 14 12  2  0
 16 18  2  0
 17 14  1  0
 18 15  1  0
 19 23  1  0
 19 16  1  0
 20 21  1  0
 20 17  2  0
 21 19  1  0
 22 21  2  0
M  END
>  <vina_score>  (4) 
-6.7709999999999999

>  <pose_id>  (4) 
4

$$$$

     RDKit          3D

 23 24  0  0  0  0  0  0  0  0999 V2000
   22.5960   15.1170   11.0260 C   0  0  0  0  0  2  0  0  0  0  0  0
   21.1200   15.3590   11.1220 C   0  0  0  0  0  3  0  0  0  0  0  0
   18.9380   14.8900   12.0240 C   0  0  0  0  0  0  0  0  0  0  0  0
   20.3510   14.6370   11.9370 C   0  0  0  0  0  3  0  0  0  0  0  0
   17.7530   15.1020   12.0980 C   0  0  0  0  0  0  0  0  0  0  0  0
   16.3040   15.3620   12.1880 C   0  0  2  0  0  0  0  0  0  0  0  0
   16.0630   16.5140   13.1770 C   0  0  0  0  0  1  0  0  0  0  0  0
   15.5960   14.0900   12.6830 C   0  0  0  0  0  1  0  0  0  0  0  0
   15.7780   15.7480   10.7960 C   0  0  0  0  0  1  0  0  0  0  0  0
   23.0670   14.3890   12.2040 N   0  0  0  0  0  0  0  0  0  0  0  0
   23.0070   14.8340   13.1300 H   0  0  0  0  0  0  0  0  0  0  0  0
   23.6090   13.0650   12.0910 C   0  0  0  0  0  0  0  0  0  0  0  0
   23.7670   12.5090   10.8140 C   0  0  0  0  0  3  0  0  0  0  0  0
   23.9850   12.3140   13.2300 C   0  0  0  0  0  0  0  0  0  0  0  0
   24.3380   11.2450   10.6540 C   0  0  0  0  0  3  0  0  0  0  0  0
   24.5690   11.0320   13.0610 C   0  0  0  0  0  0  0  0  0  0  0  0
   23.7710   12.7810   14.5380 C   0  0  0  0  0  3  0  0  0  0  0  0
   24.7450   10.5120   11.7690 C   0  0  0  0  0  3  0  0  0  0  0  0
   24.9450   10.3010   14.1520 N   0  0  0  0  0  0  0  0  0  0  0  0
   24.1630   12.0100   15.6300 C   0  0  0  0  0  3  0  0  0  0  0  0
   24.7570   10.7650   15.4190 C   0  0  0  0  0  0  0  0  0  0  0  0
   25.1150   10.0670   16.4040 O   0  0  0  0  0  0  0  0  0  0  0  0
   25.3810    9.3780   14.0130 H   0  0  0  0  0  0  0  0  0  0  0  0
  1  2  1  0
  1 10  1  0
  2  4  2  0
  3  5  3  0
  4  3  1  0
  5  6  1  0
  6  8  1  1
  6  7  1  0
  9  6  1  0
 10 11  1  0
 12 10  1  0
 12 14  1  0
 13 12  2  0
 14 17  1  0
 15 13  1  0
 15 18  2  0
 16 14  2  0
 16 19  1  0
 17 20  2  0
 18 16  1  0
 19 21  1  0
 21 20  1  0
 21 22  2  0
 23 19  1  0
M  END
>  <vina_score>  (5) 
-6.5389999999999997

>  <pose_id>  (5) 
5

$$$$
