
     RDKit          3D

 23 24  0  0  0  0  0  0  0  0999 V2000
   14.4710   10.6720   19.7440 C   0  0  0  0  0  2  0  0  0  0  0  0
   14.5450   11.7400   18.6930 C   0  0  0  0  0  3  0  0  0  0  0  0
   15.7670   13.0490   17.0840 C   0  0  0  0  0  0  0  0  0  0  0  0
   15.7010   12.0280   18.0940 C   0  0  0  0  0  3  0  0  0  0  0  0
   15.8200   13.9050   16.2370 C   0  0  0  0  0  0  0  0  0  0  0  0
   15.8830   14.9530   15.2020 C   0  0  1  0  0  0  0  0  0  0  0  0
   15.3870   14.3720   13.8680 C   0  0  0  0  0  1  0  0  0  0  0  0
   14.9880   16.1290   15.6260 C   0  0  0  0  0  1  0  0  0  0  0  0
   17.3380   15.4290   15.0580 C   0  0  0  0  0  1  0  0  0  0  0  0
   15.8040   10.1480   20.0480 N   0  0  0  0  0  0  0  0  0  0  0  0
   16.1660    9.3750   19.4710 H   0  0  0  0  0  0  0  0  0  0  0  0
   16.6400   10.6520   21.1130 C   0  0  0  0  0  0  0  0  0  0  0  0
   16.0780   10.9460   22.3710 C   0  0  0  0  0  3  0  0  0  0  0  0
   18.0370   10.8350   20.9260 C   0  0  0  0  0  0  0  0  0  0  0  0
   16.8770   11.3880   23.4260 C   0  0  0  0  0  3  0  0  0  0  0  0
   18.8340   11.2780   22.0130 C   0  0  0  0  0  0  0  0  0  0  0  0
   18.6730   10.6240   19.6860 C   0  0  0  0  0  3  0  0  0  0  0  0
   18.2490   11.5470   23.2520 C   0  0  0  0  0  3  0  0  0  0  0  0
   20.1730   11.4540   21.8530 N   0  0  0  0  0  0  0  0  0  0  0  0
   20.0490   10.8160   19.5600 C   0  0  0  0  0  3  0  0  0  0  0  0
   20.7920   11.2300   20.6650 C   0  0  0  0  0  0  0  0  0  0  0  0
   22.1660   11.4210   20.5460 O   0  0  0  0  0  0  0  0  0  0  0  0
   22.5240   12.0100   19.8350 H   0  0  0  0  0  0  0  0  0  0  0  0
  1 10  1  0
  2  1  1  0
  3  4  1  0
  4  2  2  0
  5  3  3  0
  6  8  1  1
  6  5  1  0
  7  6  1  0
  9  6  1  0
 10 12  1  0
 11 10  1  0
 12 13  1  0
 13 15  2  0
 14 12  2  0
 14 16  1  0
 16 18  2  0
 17 14  1  0
 18 15  1  0
 19 16  1  0
 20 17  2  0
 20 21  1  0
 21 19  2  0
 22 21  1  0
 23 22  1  0
M  RAD  8   1   3   2   2   4   2   7   2   8   2   9   2  13   2  15   2
M  RAD  3  17   2  18   2  20   2
M  END
>  <vina_score>  (1) 
-7.165

>  <pose_id>  (1) 
1

$$$$

     RDKit          3D

 23 24  0  0  0  0  0  0  0  0999 V2000
   20.5880    9.8190   19.0150 C   0  0  0  0  0  2  0  0  0  0  0  0
   19.6320   10.5070   18.0840 C   0  0  0  0  0  3  0  0  0  0  0  0
   18.3860   12.4400   17.3750 C   0  0  0  0  0  0  0  0  0  0  0  0
   19.2990   11.7840   18.2710 C   0  0  0  0  0  3  0  0  0  0  0  0
   17.6210   12.9890   16.6220 C   0  0  0  0  0  0  0  0  0  0  0  0
   16.6860   13.6610   15.7010 C   0  0  1  0  0  0  0  0  0  0  0  0
   15.8230   12.6000   15.0000 C   0  0  0  0  0  1  0  0  0  0  0  0
   15.7890   14.6150   16.5090 C   0  0  0  0  0  1  0  0  0  0  0  0
   17.4900   14.4560   14.6600 C   0  0  0  0  0  1  0  0  0  0  0  0
   19.8700    8.9480   19.9470 N   0  0  0  0  0  0  0  0  0  0  0  0
   20.3940    8.1890   20.4050 H   0  0  0  0  0  0  0  0  0  0  0  0
   18.4670    9.0930   20.2620 C   0  0  0  0  0  0  0  0  0  0  0  0
   17.5070    8.3360   19.5630 C   0  0  0  0  0  3  0  0  0  0  0  0
   18.0320    9.9710   21.2910 C   0  0  0  0  0  0  0  0  0  0  0  0
   16.1520    8.4250   19.8850 C   0  0  0  0  0  3  0  0  0  0  0  0
   16.6510   10.0430   21.6090 C   0  0  0  0  0  0  0  0  0  0  0  0
   18.9150   10.8100   22.0000 C   0  0  0  0  0  3  0  0  0  0  0  0
   15.7250    9.2680   20.9070 C   0  0  0  0  0  3  0  0  0  0  0  0
   16.2170   10.8740   22.5940 N   0  0  0  0  0  0  0  0  0  0  0  0
   18.4330   11.6510   23.0040 C   0  0  0  0  0  3  0  0  0  0  0  0
   17.0690   11.6680   23.2940 C   0  0  0  0  0  0  0  0  0  0  0  0
   16.5830   12.5030   24.2950 O   0  0  0  0  0  0  0  0  0  0  0  0
   16.2000   12.1140   25.1220 H   0  0  0  0  0  0  0  0  0  0  0  0
  1 10  1  0
  2  4  2  0
  2  1  1  0
  3  4  1  0
  5  3  3  0
  6  8  1  1
  6  5  1  0
  7  6  1  0
  9  6  1  0
 10 12  1  0
 10 11  1  0
 12 14  2  0
 13 15  2  0
 13 12  1  0
 14 16  1  0
 14 17  1  0
 15 18  1  0
 16 19  1  0
 17 20  2  0
 18 16  2  0
 19 21  2  0
 20 21  1  0
 21 22  1  0
 22 23  1  0
M  RAD  8   1   3   2   2   4   2   7   2   8   2   9   2  13   2  15   2
M  RAD  3  17   2  18   2  20   2
M  END
>  <vina_score>  (2) 
-6.8300000000000001

>  <pose_id>  (2) 
2

$$$$

     RDKit          3D

 23 24  0  0  0  0  0  0  0  0999 V2000
   23.3290   14.0780   10.3530 C   0  0  0  0  0  2  0  0  0  0  0  0
   23.7070   13.0830   11.4100 C   0  0  0  0  0  3  0  0  0  0  0  0
   24.4750   12.5300   13.6230 C   0  0  0  0  0  0  0  0  0  0  0  0
   24.1180   13.4870   12.6120 C   0  0  0  0  0  3  0  0  0  0  0  0
   24.7720   11.7250   14.4700 C   0  0  0  0  0  0  0  0  0  0  0  0
   25.1340   10.7400   15.5060 C   0  0  1  0  0  0  0  0  0  0  0  0
   26.4270   11.1950   16.2010 C   0  0  0  0  0  1  0  0  0  0  0  0
   23.9910   10.6520   16.5320 C   0  0  0  0  0  1  0  0  0  0  0  0
   25.3490    9.3700   14.8440 C   0  0  0  0  0  1  0  0  0  0  0  0
   22.5900   15.2000   10.9360 N   0  0  0  0  0  0  0  0  0  0  0  0
   23.1020   15.8560   11.5430 H   0  0  0  0  0  0  0  0  0  0  0  0
   21.1830   15.4400   10.7070 C   0  0  0  0  0  0  0  0  0  0  0  0
   20.7680   16.1710    9.5780 C   0  0  0  0  0  3  0  0  0  0  0  0
   20.1980   14.9260   11.5920 C   0  0  0  0  0  0  0  0  0  0  0  0
   19.4130   16.3730    9.3130 C   0  0  0  0  0  3  0  0  0  0  0  0
   18.8240   15.1330   11.3030 C   0  0  0  0  0  0  0  0  0  0  0  0
   20.5240   14.2350   12.7770 C   0  0  0  0  0  3  0  0  0  0  0  0
   18.4440   15.8510   10.1670 C   0  0  0  0  0  3  0  0  0  0  0  0
   17.8670   14.6450   12.1360 N   0  0  0  0  0  0  0  0  0  0  0  0
   19.5140   13.7490   13.6080 C   0  0  0  0  0  3  0  0  0  0  0  0
   18.1780   13.9600   13.2680 C   0  0  0  0  0  0  0  0  0  0  0  0
   17.1670   13.4750   14.0910 O   0  0  0  0  0  0  0  0  0  0  0  0
   17.2970   12.6280   14.5890 H   0  0  0  0  0  0  0  0  0  0  0  0
  1 10  1  0
  1  2  1  0
  2  4  2  0
  3  5  3  0
  4  3  1  0
  5  6  1  0
  6  7  1  1
  6  8  1  0
  9  6  1  0
 10 11  1  0
 12 10  1  0
 12 14  2  0
 13 12  1  0
 14 17  1  0
 15 13  2  0
 15 18  1  0
 16 14  1  0
 16 19  1  0
 17 20  2  0
 18 16  2  0
 19 21  2  0
 21 20  1  0
 21 22  1  0
 22 23  1  0
M  RAD  8   1   3   2   2   4   2   7   2   8   2   9   2  13   2  15   2
M  RAD  3  17   2  18   2  20   2
M  END
>  <vina_score>  (3) 
-6.7519999999999998

>  <pose_id>  (3) 
3

$$$$

     RDKit          3D

 23 24  0  0  0  0  0  0  0  0999 V2000
   21.1050   10.5310   20.5100 C   0  0  0  0  0  2  0  0  0  0  0  0
   22.1690   10.7840   19.4820 C   0  0  0  0  0  3  0  0  0  0  0  0
   23.0900   10.5130   17.2750 C   0  0  0  0  0  0  0  0  0  0  0  0
   22.0720   10.2650   18.2580 C   0  0  0  0  0  3  0  0  0  0  0  0
   23.9460   10.7240   16.4520 C   0  0  0  0  0  0  0  0  0  0  0  0
   24.9910   10.9850   15.4450 C   0  0  1  0  0  0  0  0  0  0  0  0
   24.8260    9.9930   14.2830 C   0  0  0  0  0  1  0  0  0  0  0  0
   24.8400   12.4260   14.9290 C   0  0  0  0  0  1  0  0  0  0  0  0
   26.3720   10.8040   16.0960 C   0  0  0  0  0  1  0  0  0  0  0  0
   20.1530   11.6420   20.5580 N   0  0  0  0  0  0  0  0  0  0  0  0
   20.3800   12.4510   21.1550 H   0  0  0  0  0  0  0  0  0  0  0  0
   18.9140   11.6700   19.8150 C   0  0  0  0  0  0  0  0  0  0  0  0
   18.9180   12.0300   18.4530 C   0  0  0  0  0  3  0  0  0  0  0  0
   17.6830   11.3140   20.4270 C   0  0  0  0  0  0  0  0  0  0  0  0
   17.7400   12.0170   17.7060 C   0  0  0  0  0  3  0  0  0  0  0  0
   16.4960   11.2980   19.6500 C   0  0  0  0  0  0  0  0  0  0  0  0
   17.5760   10.9990   21.7970 C   0  0  0  0  0  3  0  0  0  0  0  0
   16.5350   11.6460   18.2980 C   0  0  0  0  0  3  0  0  0  0  0  0
   15.3090   10.9550   20.2180 N   0  0  0  0  0  0  0  0  0  0  0  0
   16.3410   10.6520   22.3450 C   0  0  0  0  0  3  0  0  0  0  0  0
   15.2070   10.6300   21.5330 C   0  0  0  0  0  0  0  0  0  0  0  0
   13.9730   10.2820   22.0740 O   0  0  0  0  0  0  0  0  0  0  0  0
   13.8500    9.3950   22.4960 H   0  0  0  0  0  0  0  0  0  0  0  0
  1 10  1  0
  2  1  1  0
  3  4  1  0
  4  2  2  0
  5  3  3  0
  6  9  1  1
  6  5  1  0
  7  6  1  0
  8  6  1  0
 10 11  1  0
 12 14  2  0
 12 10  1  0
 13 12  1  0
 14 17  1  0
 15 18  1  0
 15 13  2  0
 16 19  1  0
 16 14  1  0
 17 20  2  0
 18 16  2  0
 19 21  2  0
 21 22  1  0
 21 20  1  0
 22 23  1  0
M  RAD  8   1   3   2   2   4   2   7   2   8   2   9   2  13   2  15   2
M  RAD  3  17   2  18   2  20   2
M  END
>  <vina_score>  (4) 
-6.7309999999999999

>  <pose_id>  (4) 
4

$$$$

     RDKit          3D

 23 24  0  0  0  0  0  0  0  0999 V2000
   20.3450    8.1100   18.7410 C   0  0  0  0  0  2  0  0  0  0  0  0
   21.3040    8.7540   17.7840 C   0  0  0  0  0  3  0  0  0  0  0  0
   23.3140    9.9880   17.3060 C   0  0  0  0  0  0  0  0  0  0  0  0
   22.3950    9.3770   18.2270 C   0  0  0  0  0  3  0  0  0  0  0  0
   24.0830   10.4990   16.5310 C   0  0  0  0  0  0  0  0  0  0  0  0
   25.0240   11.1260   15.5840 C   0  0  1  0  0  0  0  0  0  0  0  0
   24.9420   10.3910   14.2360 C   0  0  0  0  0  1  0  0  0  0  0  0
   24.6360   12.6030   15.3990 C   0  0  0  0  0  1  0  0  0  0  0  0
   26.4490   11.0260   16.1510 C   0  0  0  0  0  1  0  0  0  0  0  0
   19.8550    9.0830   19.7200 N   0  0  0  0  0  0  0  0  0  0  0  0
   20.5400    9.7120   20.1640 H   0  0  0  0  0  0  0  0  0  0  0  0
   18.4670    9.2110   20.0990 C   0  0  0  0  0  0  0  0  0  0  0  0
   17.4790    8.4810   19.4110 C   0  0  0  0  0  3  0  0  0  0  0  0
   18.0740   10.0460   21.1800 C   0  0  0  0  0  0  0  0  0  0  0  0
   16.1390    8.5530   19.7920 C   0  0  0  0  0  3  0  0  0  0  0  0
   16.7080   10.1010   21.5580 C   0  0  0  0  0  0  0  0  0  0  0  0
   18.9850   10.8570   21.8850 C   0  0  0  0  0  3  0  0  0  0  0  0
   15.7540    9.3530   20.8650 C   0  0  0  0  0  3  0  0  0  0  0  0
   16.3150   10.8910   22.5930 N   0  0  0  0  0  0  0  0  0  0  0  0
   18.5450   11.6560   22.9410 C   0  0  0  0  0  3  0  0  0  0  0  0
   17.1950   11.6580   23.2880 C   0  0  0  0  0  0  0  0  0  0  0  0
   16.7500   12.4500   24.3420 O   0  0  0  0  0  0  0  0  0  0  0  0
   16.4590   13.3820   24.1740 H   0  0  0  0  0  0  0  0  0  0  0  0
  1 10  1  0
  2  4  2  0
  2  1  1  0
  3  4  1  0
  5  3  3  0
  6  9  1  1
  6  5  1  0
  7  6  1  0
  8  6  1  0
 10 12  1  0
 10 11  1  0
 12 14  2  0
 13 15  2  0
 13 12  1  0
 14 16  1  0
 14 17  1  0
 15 18  1  0
 16 19  1  0
 17 20  2  0
 18 16  2  0
 19 21  2  0
 20 21  1  0
 21 22  1  0
 23 22  1  0
M  RAD  8   1   3   2   2   4   2   7   2   8   2   9   2  13   2  15   2
M  RAD  3  17   2  18   2  20   2
M  END
>  <vina_score>  (5) 
-6.7030000000000003

>  <pose_id>  (5) 
5

$$$$
