
     RDKit          3D

 68 70  0  0  1  0  0  0  0  0999 V2000
   20.5090   14.2470   14.0150 C   0  0  0  0  0  0  0  0  0  0  0  0
   20.9250   15.2440   14.6670 O   0  0  0  0  0  0  0  0  0  0  0  0
   21.3640   13.1150   13.7920 N   0  0  0  0  0  0  0  0  0  0  0  0
   21.0140   12.3340   13.2180 H   0  0  0  0  0  0  0  0  0  0  0  0
   19.0810   14.2040   13.5430 C   0  0  0  0  0  3  0  0  0  0  0  0
   18.2820   13.4520   14.5140 N   0  0  0  0  0  0  0  0  0  0  0  0
   18.0520   12.0380   14.3860 C   0  0  0  0  0  0  0  0  0  0  0  0
   18.4950   11.4020   13.3900 O   0  0  0  0  0  0  0  0  0  0  0  0
   17.8710   13.9530   15.3140 H   0  0  0  0  0  0  0  0  0  0  0  0
   17.2640   11.3020   15.4320 C   0  0  0  0  0  2  0  0  0  0  0  0
   17.2560   12.0490   16.7730 C   0  0  0  0  0  2  0  0  0  0  0  0
   15.8620   12.5340   17.2200 C   0  0  0  0  0  2  0  0  0  0  0  0
   15.3140   11.8510   18.4880 C   0  0  0  0  0  2  0  0  0  0  0  0
   16.4090   11.1880   19.3370 C   0  0  0  0  0  2  0  0  0  0  0  0
   16.1620    9.6790   19.4560 C   0  0  0  0  0  2  0  0  0  0  0  0
   15.8490    9.2760   20.8950 C   0  0  0  0  0  1  0  0  0  0  0  0
   18.4960   15.6160   13.3440 C   0  0  0  0  0  2  0  0  0  0  0  0
   17.9050   15.7740   11.9610 C   0  0  0  0  0  0  0  0  0  0  0  0
   16.5110   15.7930   11.7820 C   0  0  0  0  0  3  0  0  0  0  0  0
   18.7460   15.9630   10.8520 C   0  0  0  0  0  3  0  0  0  0  0  0
   15.9710   15.9890   10.5080 C   0  0  0  0  0  3  0  0  0  0  0  0
   18.1980   16.1580    9.5810 C   0  0  0  0  0  3  0  0  0  0  0  0
   16.8130   16.1670    9.4090 C   0  0  0  0  0  3  0  0  0  0  0  0
   22.7170   13.0300   14.3520 C   0  0  0  0  0  3  0  0  0  0  0  0
   22.9070   11.7410   15.1210 C   0  0  0  0  0  0  0  0  0  0  0  0
   23.8270   11.6820   15.9850 O   0  0  0  0  0  0  0  0  0  0  0  0
   22.1020   10.5800   14.8570 N   0  0  0  0  0  0  0  0  0  0  0  0
   21.1260   10.7070   14.5510 H   0  0  0  0  0  0  0  0  0  0  0  0
   22.6260    9.2220   15.0080 C   0  0  0  0  0  3  0  0  0  0  0  0
   23.2600    8.8030   13.7120 C   0  0  0  0  0  0  0  0  0  0  0  0
   22.5600    8.2500   12.8180 O   0  0  0  0  0  0  0  0  0  0  0  0
   24.6100    9.0440   13.4850 O   0  0  0  0  0  0  0  0  0  0  0  0
   25.2520    9.0170   14.2380 H   0  0  0  0  0  0  0  0  0  0  0  0
   21.4870    8.2610   15.3920 C   0  0  0  0  0  3  0  0  0  0  0  0
   21.5550    7.9630   16.7660 O   0  0  0  0  0  0  0  0  0  0  0  0
   20.1080    8.8690   15.1260 C   0  0  0  0  0  3  0  0  0  0  0  0
   20.2380    7.6880   17.2020 C   0  0  0  0  0  3  0  0  0  0  0  0
   19.2300    8.1770   16.1480 C   0  0  0  0  0  3  0  0  0  0  0  0
   19.6580    8.7030   13.7990 O   0  0  0  0  0  0  0  0  0  0  0  0
   18.6750    8.5850   13.7970 H   0  0  0  0  0  0  0  0  0  0  0  0
   19.9860    8.3230   18.5180 N   0  0  0  0  0  0  0  0  0  0  0  0
   20.3950    9.6140   18.7130 C   0  0  0  0  0  3  0  0  0  0  0  0
   19.4050    7.6350   19.5560 C   0  0  0  0  0  0  0  0  0  0  0  0
   20.1950   10.2630   19.9420 C   0  0  0  0  0  0  0  0  0  0  0  0
   19.1910    8.2460   20.7510 N   0  0  0  0  0  0  0  0  0  0  0  0
   19.0580    6.4290   19.4170 O   0  0  0  0  0  0  0  0  0  0  0  0
   19.5670    9.5350   20.9680 C   0  0  0  0  0  0  0  0  0  0  0  0
   19.3470   10.0580   22.0940 O   0  0  0  0  0  0  0  0  0  0  0  0
   18.7350    7.7210   21.5100 H   0  0  0  0  0  0  0  0  0  0  0  0
   20.6310   11.6740   20.1140 C   0  0  0  0  0  0  0  0  0  0  0  0
   21.7100   11.9490   20.7050 O   0  0  0  0  0  0  0  0  0  0  0  0
   19.8450   12.7150   19.6210 O   0  0  0  0  0  0  0  0  0  0  0  0
   18.8650   12.7050   19.7630 H   0  0  0  0  0  0  0  0  0  0  0  0
   18.5480    7.0860   15.5750 O   0  0  0  0  0  0  0  0  0  0  0  0
   18.8670    6.9470   14.6480 H   0  0  0  0  0  0  0  0  0  0  0  0
   23.7760   13.1540   13.2240 C   0  0  0  0  0  3  0  0  0  0  0  0
   24.6370   12.0450   13.2480 O   0  0  0  0  0  0  0  0  0  0  0  0
   25.5760   12.3560   13.2140 H   0  0  0  0  0  0  0  0  0  0  0  0
   23.1100   13.2600   11.8270 C   0  0  0  0  0  3  0  0  0  0  0  0
   22.9170   14.6110   11.5010 O   0  0  0  0  0  0  0  0  0  0  0  0
   22.5000   15.0790   12.2670 H   0  0  0  0  0  0  0  0  0  0  0  0
   23.9790   12.6090   10.7380 C   0  0  0  0  0  2  0  0  0  0  0  0
   23.4950   11.3050   10.4310 O   0  0  0  0  0  0  0  0  0  0  0  0
   24.3330   10.1920   10.3190 C   0  0  0  0  0  0  0  0  0  0  0  0
   25.5380   10.1390   11.0790 N   0  0  0  0  0  0  0  0  0  0  0  0
   24.0320    9.2340    9.5580 O   0  0  0  0  0  0  0  0  0  0  0  0
   26.1600    9.3220   11.0010 H   0  0  0  0  0  0  0  0  0  0  0  0
   25.7860   10.9180   11.7050 H   0  0  0  0  0  0  0  0  0  0  0  0
  1  2  2  0
  1  3  1  1
 24  3  1  0
  3  4  1  0
  5 17  1  0
  5  1  1  1
  5  6  1  0
  6  9  1  0
  6  7  1  0
  7 10  1  0
  8  7  2  0
 10 11  1  0
 11 12  1  0
 12 13  1  0
 13 14  1  0
 14 15  1  0
 15 16  1  0
 18 17  1  0
 19 18  1  0
 20 18  2  0
 21 19  2  0
 22 20  1  0
 23 22  2  0
 23 21  1  0
 24 25  1  1
 25 26  2  0
 29 27  1  0
 27 25  1  1
 27 28  1  0
 29 30  1  0
 31 30  2  0
 32 30  1  0
 32 33  1  0
 29 34  1  0
 34 35  1  1
 37 35  1  0
 36 39  1  0
 36 34  1  1
 38 36  1  6
 37 41  1  0
 38 54  1  0
 38 37  1  0
 40 39  1  0
 41 42  1  0
 41 43  1  0
 42 44  2  0
 43 45  1  0
 44 50  1  0
 44 47  1  0
 45 47  1  0
 45 49  1  0
 46 43  2  0
 47 48  2  0
 50 51  2  0
 52 53  1  0
 52 50  1  0
 55 54  1  0
 56 57  1  0
 56 24  1  1
 58 57  1  0
 59 62  1  0
 56 59  1  0
 59 60  1  0
 60 61  1  0
 63 62  1  0
 64 63  1  0
 64 65  1  0
 65 68  1  0
 66 64  2  0
 67 65  1  0
M  END
>  <vina_score>  (1) 
-7.6799999999999997

>  <pose_id>  (1) 
1

$$$$

     RDKit          3D

 68 70  0  0  1  0  0  0  0  0999 V2000
   18.6440   14.3400   14.3190 C   0  0  0  0  0  0  0  0  0  0  0  0
   19.3560   14.6870   15.3010 O   0  0  0  0  0  0  0  0  0  0  0  0
   19.1850   13.4950   13.2910 N   0  0  0  0  0  0  0  0  0  0  0  0
   18.5960   13.2640   12.4780 H   0  0  0  0  0  0  0  0  0  0  0  0
   17.1950   14.7400   14.2660 C   0  0  0  0  0  3  0  0  0  0  0  0
   16.6260   14.6480   15.6130 N   0  0  0  0  0  0  0  0  0  0  0  0
   15.9990   13.4490   16.1010 C   0  0  0  0  0  0  0  0  0  0  0  0
   15.8710   12.4410   15.3520 O   0  0  0  0  0  0  0  0  0  0  0  0
   16.6770   15.4700   16.2320 H   0  0  0  0  0  0  0  0  0  0  0  0
   15.4720   13.3870   17.5060 C   0  0  0  0  0  2  0  0  0  0  0  0
   15.6270   11.9840   18.1130 C   0  0  0  0  0  2  0  0  0  0  0  0
   14.4540   11.5530   19.0170 C   0  0  0  0  0  2  0  0  0  0  0  0
   14.6830   10.2410   19.7920 C   0  0  0  0  0  2  0  0  0  0  0  0
   14.7850   10.4480   21.3110 C   0  0  0  0  0  2  0  0  0  0  0  0
   15.9730    9.6660   21.8850 C   0  0  0  0  0  2  0  0  0  0  0  0
   17.0990    9.5310   20.8620 C   0  0  0  0  0  1  0  0  0  0  0  0
   17.0080   16.1620   13.7010 C   0  0  0  0  0  2  0  0  0  0  0  0
   16.8970   16.1420   12.1930 C   0  0  0  0  0  0  0  0  0  0  0  0
   15.6630   15.8770   11.5750 C   0  0  0  0  0  3  0  0  0  0  0  0
   18.0140   16.4460   11.3980 C   0  0  0  0  0  3  0  0  0  0  0  0
   15.5550   15.9090   10.1830 C   0  0  0  0  0  3  0  0  0  0  0  0
   17.8990   16.4750   10.0060 C   0  0  0  0  0  3  0  0  0  0  0  0
   16.6720   16.2030    9.3990 C   0  0  0  0  0  3  0  0  0  0  0  0
   20.5440   12.9480   13.3580 C   0  0  0  0  0  3  0  0  0  0  0  0
   20.5300   11.4390   13.2500 C   0  0  0  0  0  0  0  0  0  0  0  0
   21.3800   10.8780   12.5020 O   0  0  0  0  0  0  0  0  0  0  0  0
   19.5470   10.6450   13.9360 N   0  0  0  0  0  0  0  0  0  0  0  0
   19.1860   10.9710   14.8430 H   0  0  0  0  0  0  0  0  0  0  0  0
   19.0450    9.3860   13.3820 C   0  0  0  0  0  3  0  0  0  0  0  0
   17.6430    9.6020   12.8890 C   0  0  0  0  0  0  0  0  0  0  0  0
   17.1360   10.7580   12.9150 O   0  0  0  0  0  0  0  0  0  0  0  0
   16.9100    8.5350   12.3820 O   0  0  0  0  0  0  0  0  0  0  0  0
   16.0760    8.7030   11.8750 H   0  0  0  0  0  0  0  0  0  0  0  0
   19.0800    8.2890   14.4620 C   0  0  0  0  0  3  0  0  0  0  0  0
   20.2660    8.3940   15.2120 O   0  0  0  0  0  0  0  0  0  0  0  0
   17.9100    8.4100   15.4410 C   0  0  0  0  0  3  0  0  0  0  0  0
   19.9890    7.8990   16.5080 C   0  0  0  0  0  3  0  0  0  0  0  0
   18.4670    7.8010   16.7110 C   0  0  0  0  0  3  0  0  0  0  0  0
   16.7260    7.7860   14.9950 O   0  0  0  0  0  0  0  0  0  0  0  0
   16.8470    6.8030   15.0050 H   0  0  0  0  0  0  0  0  0  0  0  0
   20.6120    8.7650   17.5370 N   0  0  0  0  0  0  0  0  0  0  0  0
   19.9320    9.8730   17.9610 C   0  0  0  0  0  3  0  0  0  0  0  0
   21.8690    8.5140   18.0320 C   0  0  0  0  0  0  0  0  0  0  0  0
   20.4760   10.7380   18.9240 C   0  0  0  0  0  0  0  0  0  0  0  0
   22.4130    9.3310   18.9730 N   0  0  0  0  0  0  0  0  0  0  0  0
   22.5370    7.5220   17.6250 O   0  0  0  0  0  0  0  0  0  0  0  0
   21.7510   10.4280   19.4300 C   0  0  0  0  0  0  0  0  0  0  0  0
   22.2980   11.1550   20.3040 O   0  0  0  0  0  0  0  0  0  0  0  0
   23.3470    9.1140   19.3480 H   0  0  0  0  0  0  0  0  0  0  0  0
   19.7020   11.9220   19.3800 C   0  0  0  0  0  0  0  0  0  0  0  0
   19.4380   12.0920   20.6010 O   0  0  0  0  0  0  0  0  0  0  0  0
   19.2520   12.8630   18.4530 O   0  0  0  0  0  0  0  0  0  0  0  0
   19.8510   13.5940   18.1600 H   0  0  0  0  0  0  0  0  0  0  0  0
   18.0720    6.4560   16.8450 O   0  0  0  0  0  0  0  0  0  0  0  0
   17.1170    6.4170   17.1020 H   0  0  0  0  0  0  0  0  0  0  0  0
   21.4290   13.5670   12.2430 C   0  0  0  0  0  3  0  0  0  0  0  0
   20.8580   14.7660   11.7860 O   0  0  0  0  0  0  0  0  0  0  0  0
   21.5120   15.2470   11.2190 H   0  0  0  0  0  0  0  0  0  0  0  0
   22.8710   13.8420   12.7460 C   0  0  0  0  0  3  0  0  0  0  0  0
   23.0710   13.1910   13.9730 O   0  0  0  0  0  0  0  0  0  0  0  0
   22.7560   13.7710   14.7100 H   0  0  0  0  0  0  0  0  0  0  0  0
   23.9220   13.3400   11.7440 C   0  0  0  0  0  2  0  0  0  0  0  0
   24.5320   12.1450   12.2220 O   0  0  0  0  0  0  0  0  0  0  0  0
   24.6590   10.9940   11.4390 C   0  0  0  0  0  0  0  0  0  0  0  0
   24.2020    9.7430   11.9460 N   0  0  0  0  0  0  0  0  0  0  0  0
   25.1680   11.0530   10.2880 O   0  0  0  0  0  0  0  0  0  0  0  0
   24.2920    8.8920   11.3740 H   0  0  0  0  0  0  0  0  0  0  0  0
   23.7810    9.6910   12.8840 H   0  0  0  0  0  0  0  0  0  0  0  0
  1  2  2  0
  3 24  1  0
  1  3  1  1
  3  4  1  0
  5 17  1  0
  5  1  1  1
  5  6  1  0
  6  7  1  0
  6  9  1  0
  7 10  1  0
  8  7  2  0
 10 11  1  0
 11 12  1  0
 12 13  1  0
 13 14  1  0
 14 15  1  0
 16 15  1  0
 18 17  1  0
 19 18  1  0
 20 18  2  0
 21 19  2  0
 22 20  1  0
 23 22  2  0
 23 21  1  0
 24 25  1  0
 27 25  1  0
 26 25  2  0
 27 28  1  0
 29 30  1  0
 29 27  1  0
 30 31  2  0
 32 30  1  0
 33 32  1  0
 34 29  1  1
 34 35  1  0
 36 34  1  6
 37 35  1  0
 36 39  1  0
 38 36  1  6
 38 37  1  0
 37 41  1  0
 38 54  1  0
 39 40  1  0
 41 42  1  0
 41 43  1  0
 42 44  2  0
 43 45  1  0
 44 50  1  0
 44 47  1  0
 45 49  1  0
 45 47  1  0
 46 43  2  0
 47 48  2  0
 50 51  2  0
 52 50  1  0
 53 52  1  0
 54 55  1  0
 56 57  1  0
 56 59  1  0
 56 24  1  1
 58 57  1  0
 59 62  1  0
 59 60  1  0
 60 61  1  0
 62 63  1  0
 64 65  1  0
 64 63  1  0
 65 68  1  0
 66 64  2  0
 67 65  1  0
M  END
>  <vina_score>  (2) 
-6.641

>  <pose_id>  (2) 
2

$$$$

     RDKit          3D

 68 70  0  0  1  0  0  0  0  0999 V2000
   19.9800   10.6810   13.3260 C   0  0  0  0  0  0  0  0  0  0  0  0
   19.2550   10.5840   12.2980 O   0  0  0  0  0  0  0  0  0  0  0  0
   20.5700   11.9410   13.6830 N   0  0  0  0  0  0  0  0  0  0  0  0
   21.1940   11.9830   14.5020 H   0  0  0  0  0  0  0  0  0  0  0  0
   20.1550    9.4950   14.2340 C   0  0  0  0  0  3  0  0  0  0  0  0
   21.5580    9.0730   14.2000 N   0  0  0  0  0  0  0  0  0  0  0  0
   21.9470    7.7250   13.8820 C   0  0  0  0  0  0  0  0  0  0  0  0
   21.0730    6.8380   13.6710 O   0  0  0  0  0  0  0  0  0  0  0  0
   22.2910    9.7650   14.4110 H   0  0  0  0  0  0  0  0  0  0  0  0
   23.3990    7.3510   13.8140 C   0  0  0  0  0  2  0  0  0  0  0  0
   24.0240    7.2290   15.2120 C   0  0  0  0  0  2  0  0  0  0  0  0
   25.4210    7.8700   15.3390 C   0  0  0  0  0  2  0  0  0  0  0  0
   25.4820    9.3680   14.9800 C   0  0  0  0  0  2  0  0  0  0  0  0
   26.4960   10.1500   15.8290 C   0  0  0  0  0  2  0  0  0  0  0  0
   26.0140   11.5880   16.0570 C   0  0  0  0  0  2  0  0  0  0  0  0
   24.9770   12.0030   15.0150 C   0  0  0  0  0  1  0  0  0  0  0  0
   19.7240    9.8070   15.6810 C   0  0  0  0  0  2  0  0  0  0  0  0
   20.8560    9.5680   16.6540 C   0  0  0  0  0  0  0  0  0  0  0  0
   20.9180    8.3750   17.3950 C   0  0  0  0  0  3  0  0  0  0  0  0
   21.8880   10.5120   16.7820 C   0  0  0  0  0  3  0  0  0  0  0  0
   21.9930    8.1380   18.2550 C   0  0  0  0  0  3  0  0  0  0  0  0
   22.9600   10.2690   17.6450 C   0  0  0  0  0  3  0  0  0  0  0  0
   23.0100    9.0860   18.3830 C   0  0  0  0  0  3  0  0  0  0  0  0
   20.3180   13.1700   12.9240 C   0  0  0  0  0  3  0  0  0  0  0  0
   18.8510   13.5370   12.9540 C   0  0  0  0  0  0  0  0  0  0  0  0
   18.3650   14.1690   11.9740 O   0  0  0  0  0  0  0  0  0  0  0  0
   18.0200   13.2270   14.0850 N   0  0  0  0  0  0  0  0  0  0  0  0
   18.2170   12.3760   14.6320 H   0  0  0  0  0  0  0  0  0  0  0  0
   16.9030   14.0840   14.4840 C   0  0  0  0  0  3  0  0  0  0  0  0
   17.4520   15.3860   14.9950 C   0  0  0  0  0  0  0  0  0  0  0  0
   16.8030   16.4540   14.8210 O   0  0  0  0  0  0  0  0  0  0  0  0
   18.6610   15.4130   15.6800 O   0  0  0  0  0  0  0  0  0  0  0  0
   18.6920   15.7310   16.6170 H   0  0  0  0  0  0  0  0  0  0  0  0
   16.0680   13.3820   15.5710 C   0  0  0  0  0  3  0  0  0  0  0  0
   16.8250   12.3580   16.1690 O   0  0  0  0  0  0  0  0  0  0  0  0
   15.6460   14.3460   16.6820 C   0  0  0  0  0  3  0  0  0  0  0  0
   16.3610   12.2130   17.4970 C   0  0  0  0  0  3  0  0  0  0  0  0
   15.5120   13.4350   17.8860 C   0  0  0  0  0  3  0  0  0  0  0  0
   14.4700   15.0690   16.3950 O   0  0  0  0  0  0  0  0  0  0  0  0
   14.6750   16.0370   16.3720 H   0  0  0  0  0  0  0  0  0  0  0  0
   17.5020   12.0360   18.4270 N   0  0  0  0  0  0  0  0  0  0  0  0
   17.2510   11.5870   19.6950 C   0  0  0  0  0  3  0  0  0  0  0  0
   18.7880   12.3600   18.0670 C   0  0  0  0  0  0  0  0  0  0  0  0
   18.2900   11.4120   20.6240 C   0  0  0  0  0  0  0  0  0  0  0  0
   19.8110   12.1890   18.9460 N   0  0  0  0  0  0  0  0  0  0  0  0
   19.0410   12.8170   16.9180 O   0  0  0  0  0  0  0  0  0  0  0  0
   19.5950   11.7240   20.2060 C   0  0  0  0  0  0  0  0  0  0  0  0
   20.5780   11.5820   20.9850 O   0  0  0  0  0  0  0  0  0  0  0  0
   20.7710   12.4160   18.6510 H   0  0  0  0  0  0  0  0  0  0  0  0
   17.9860   10.9020   21.9870 C   0  0  0  0  0  0  0  0  0  0  0  0
   16.9550   10.2110   22.2040 O   0  0  0  0  0  0  0  0  0  0  0  0
   18.8440   11.1890   23.0490 O   0  0  0  0  0  0  0  0  0  0  0  0
   19.4590   10.4920   23.3890 H   0  0  0  0  0  0  0  0  0  0  0  0
   14.1700   13.0590   18.0900 O   0  0  0  0  0  0  0  0  0  0  0  0
   13.9180   12.3660   17.4300 H   0  0  0  0  0  0  0  0  0  0  0  0
   21.1830   14.3330   13.4780 C   0  0  0  0  0  3  0  0  0  0  0  0
   21.9120   13.9000   14.5980 O   0  0  0  0  0  0  0  0  0  0  0  0
   22.7540   13.4750   14.2990 H   0  0  0  0  0  0  0  0  0  0  0  0
   22.1640   14.8760   12.4050 C   0  0  0  0  0  3  0  0  0  0  0  0
   22.5700   16.1730   12.7550 O   0  0  0  0  0  0  0  0  0  0  0  0
   23.4600   16.3580   12.3630 H   0  0  0  0  0  0  0  0  0  0  0  0
   23.4100   13.9860   12.2780 C   0  0  0  0  0  2  0  0  0  0  0  0
   23.2350   13.0330   11.2350 O   0  0  0  0  0  0  0  0  0  0  0  0
   23.6880   11.7140   11.3300 C   0  0  0  0  0  0  0  0  0  0  0  0
   24.8680   11.3230   10.6340 N   0  0  0  0  0  0  0  0  0  0  0  0
   23.0660   10.8690   12.0290 O   0  0  0  0  0  0  0  0  0  0  0  0
   25.2070   10.3520   10.7000 H   0  0  0  0  0  0  0  0  0  0  0  0
   25.3820   12.0100   10.0650 H   0  0  0  0  0  0  0  0  0  0  0  0
  1  3  1  1
  5  1  1  0
  2  1  2  0
  3  4  1  0
  5 17  1  1
  5  6  1  0
  6  9  1  0
  6  7  1  0
  8  7  2  0
 10  7  1  0
 10 11  1  0
 11 12  1  0
 13 12  1  0
 13 14  1  0
 14 15  1  0
 16 15  1  0
 17 18  1  0
 18 20  2  0
 18 19  1  0
 19 21  2  0
 20 22  1  0
 21 23  1  0
 22 23  2  0
 24 25  1  0
 56 24  1  0
 24  3  1  1
 27 25  1  0
 26 25  2  0
 29 27  1  0
 27 28  1  1
 29 30  1  0
 30 32  1  0
 31 30  2  0
 32 33  1  0
 29 34  1  0
 34 35  1  1
 36 34  1  6
 37 35  1  0
 36 39  1  0
 38 36  1  6
 38 37  1  0
 37 41  1  0
 38 54  1  0
 40 39  1  0
 41 42  1  0
 42 44  2  0
 43 41  1  0
 43 45  1  0
 44 50  1  0
 45 47  1  0
 46 43  2  0
 47 44  1  0
 47 48  2  0
 49 45  1  0
 50 51  2  0
 50 52  1  0
 52 53  1  0
 55 54  1  0
 56 57  1  1
 58 57  1  0
 59 62  1  0
 59 60  1  0
 56 59  1  0
 61 60  1  0
 63 64  1  0
 63 62  1  0
 64 66  2  0
 65 67  1  0
 65 64  1  0
 68 65  1  0
M  END
>  <vina_score>  (3) 
-6.1790000000000003

>  <pose_id>  (3) 
3

$$$$

     RDKit          3D

 68 70  0  0  1  0  0  0  0  0999 V2000
   17.3130   13.1700   16.0630 C   0  0  0  0  0  0  0  0  0  0  0  0
   18.2060   13.9820   16.4300 O   0  0  0  0  0  0  0  0  0  0  0  0
   17.6710   11.8670   15.5750 N   0  0  0  0  0  0  0  0  0  0  0  0
   16.9250   11.2410   15.2400 H   0  0  0  0  0  0  0  0  0  0  0  0
   15.8610   13.5310   16.2180 C   0  0  0  0  0  3  0  0  0  0  0  0
   15.4670   13.3290   17.6150 N   0  0  0  0  0  0  0  0  0  0  0  0
   15.4730   12.0310   18.2330 C   0  0  0  0  0  0  0  0  0  0  0  0
   15.7710   11.0020   17.5650 O   0  0  0  0  0  0  0  0  0  0  0  0
   15.1770   14.1450   18.1730 H   0  0  0  0  0  0  0  0  0  0  0  0
   15.1050   11.8790   19.6810 C   0  0  0  0  0  2  0  0  0  0  0  0
   15.0860   10.4060   20.1150 C   0  0  0  0  0  2  0  0  0  0  0  0
   16.0620   10.0710   21.2620 C   0  0  0  0  0  2  0  0  0  0  0  0
   17.5440   10.3600   20.9560 C   0  0  0  0  0  2  0  0  0  0  0  0
   18.0420   11.6750   21.5750 C   0  0  0  0  0  2  0  0  0  0  0  0
   18.3280   11.4960   23.0700 C   0  0  0  0  0  2  0  0  0  0  0  0
   17.3350   12.2790   23.9270 C   0  0  0  0  0  1  0  0  0  0  0  0
   15.5780   14.9840   15.7850 C   0  0  0  0  0  2  0  0  0  0  0  0
   15.6350   15.1280   14.2810 C   0  0  0  0  0  0  0  0  0  0  0  0
   16.2720   16.2360   13.6970 C   0  0  0  0  0  3  0  0  0  0  0  0
   15.1010   14.1250   13.4550 C   0  0  0  0  0  3  0  0  0  0  0  0
   16.3650   16.3380   12.3070 C   0  0  0  0  0  3  0  0  0  0  0  0
   15.1970   14.2350   12.0660 C   0  0  0  0  0  3  0  0  0  0  0  0
   15.8240   15.3420   11.4920 C   0  0  0  0  0  3  0  0  0  0  0  0
   19.0600   11.3960   15.5380 C   0  0  0  0  0  3  0  0  0  0  0  0
   19.3120   10.3600   16.6110 C   0  0  0  0  0  0  0  0  0  0  0  0
   18.9130   10.5970   17.7860 O   0  0  0  0  0  0  0  0  0  0  0  0
   20.0320    9.1480   16.3330 N   0  0  0  0  0  0  0  0  0  0  0  0
   19.9550    8.7240   15.3970 H   0  0  0  0  0  0  0  0  0  0  0  0
   20.8730    8.4970   17.3390 C   0  0  0  0  0  3  0  0  0  0  0  0
   21.4780    9.5550   18.2180 C   0  0  0  0  0  0  0  0  0  0  0  0
   22.2480   10.4230   17.7210 O   0  0  0  0  0  0  0  0  0  0  0  0
   21.1730    9.5940   19.5740 O   0  0  0  0  0  0  0  0  0  0  0  0
   21.4090   10.3920   20.1120 H   0  0  0  0  0  0  0  0  0  0  0  0
   21.9720    7.6700   16.6480 C   0  0  0  0  0  3  0  0  0  0  0  0
   22.0020    7.9700   15.2730 O   0  0  0  0  0  0  0  0  0  0  0  0
   23.3610    7.9760   17.2110 C   0  0  0  0  0  3  0  0  0  0  0  0
   23.3300    7.7690   14.8280 C   0  0  0  0  0  3  0  0  0  0  0  0
   24.2740    7.6810   16.0390 C   0  0  0  0  0  3  0  0  0  0  0  0
   23.6820    7.2380   18.3700 O   0  0  0  0  0  0  0  0  0  0  0  0
   24.6270    6.9450   18.3230 H   0  0  0  0  0  0  0  0  0  0  0  0
   23.7380    8.8590   13.9100 N   0  0  0  0  0  0  0  0  0  0  0  0
   24.0880   10.0690   14.4420 C   0  0  0  0  0  3  0  0  0  0  0  0
   23.7210    8.7010   12.5440 C   0  0  0  0  0  0  0  0  0  0  0  0
   24.4710   11.1420   13.6220 C   0  0  0  0  0  0  0  0  0  0  0  0
   24.0980    9.7230   11.7300 N   0  0  0  0  0  0  0  0  0  0  0  0
   23.3600    7.6080   12.0250 O   0  0  0  0  0  0  0  0  0  0  0  0
   24.4720   10.9300   12.2320 C   0  0  0  0  0  0  0  0  0  0  0  0
   24.8140   11.8470   11.4350 O   0  0  0  0  0  0  0  0  0  0  0  0
   24.1010    9.5790   10.7110 H   0  0  0  0  0  0  0  0  0  0  0  0
   24.8660   12.4390   14.2330 C   0  0  0  0  0  0  0  0  0  0  0  0
   25.5000   12.4720   15.3220 O   0  0  0  0  0  0  0  0  0  0  0  0
   24.5350   13.6390   13.6050 O   0  0  0  0  0  0  0  0  0  0  0  0
   25.0680   13.9580   12.8340 H   0  0  0  0  0  0  0  0  0  0  0  0
   24.8270    6.3900   16.1400 O   0  0  0  0  0  0  0  0  0  0  0  0
   24.1270    5.7150   15.9540 H   0  0  0  0  0  0  0  0  0  0  0  0
   19.3970   10.8240   14.1360 C   0  0  0  0  0  3  0  0  0  0  0  0
   18.4620   11.2790   13.1920 O   0  0  0  0  0  0  0  0  0  0  0  0
   17.8710   10.5320   12.9250 H   0  0  0  0  0  0  0  0  0  0  0  0
   20.8250   11.2270   13.6830 C   0  0  0  0  0  3  0  0  0  0  0  0
   21.0150   10.8520   12.3440 O   0  0  0  0  0  0  0  0  0  0  0  0
   21.3510   11.6280   11.8280 H   0  0  0  0  0  0  0  0  0  0  0  0
   21.0480   12.7430   13.8070 C   0  0  0  0  0  2  0  0  0  0  0  0
   20.3970   13.4290   12.7420 O   0  0  0  0  0  0  0  0  0  0  0  0
   21.0090   14.4540   12.0150 C   0  0  0  0  0  0  0  0  0  0  0  0
   20.2370   15.5720   11.5860 N   0  0  0  0  0  0  0  0  0  0  0  0
   22.2380   14.4010   11.7400 O   0  0  0  0  0  0  0  0  0  0  0  0
   20.6820   16.3300   11.0500 H   0  0  0  0  0  0  0  0  0  0  0  0
   19.2340   15.6210   11.8120 H   0  0  0  0  0  0  0  0  0  0  0  0
  1  5  1  0
  1  2  2  0
  3  1  1  0
  3  4  1  0
  5 17  1  0
  5  6  1  1
  6  9  1  0
  6  7  1  0
  7 10  1  0
  8  7  2  0
 10 11  1  0
 11 12  1  0
 13 12  1  0
 13 14  1  0
 14 15  1  0
 15 16  1  0
 18 17  1  0
 19 18  1  0
 20 18  2  0
 21 19  2  0
 22 20  1  0
 23 22  2  0
 23 21  1  0
 24  3  1  0
 24 25  1  1
 25 26  2  0
 27 25  1  1
 27 29  1  0
 27 28  1  0
 29 30  1  0
 30 32  1  0
 31 30  2  0
 32 33  1  0
 36 34  1  0
 34 29  1  0
 34 35  1  6
 36 39  1  0
 37 41  1  0
 37 35  1  1
 38 37  1  6
 38 54  1  0
 38 36  1  0
 40 39  1  0
 41 42  1  0
 43 41  1  0
 44 50  1  0
 44 42  2  0
 45 47  1  0
 45 43  1  0
 46 43  2  0
 47 44  1  0
 48 47  2  0
 49 45  1  0
 50 51  2  0
 52 50  1  0
 53 52  1  0
 55 54  1  0
 56 57  1  0
 56 24  1  0
 58 57  1  0
 59 62  1  1
 59 56  1  0
 59 60  1  0
 61 60  1  0
 63 62  1  0
 64 63  1  0
 65 68  1  0
 65 64  1  0
 66 64  2  0
 67 65  1  0
M  END
>  <vina_score>  (4) 
-6.157

>  <pose_id>  (4) 
4

$$$$
