
     RDKit          3D

 48 49  0  0  1  0  0  0  0  0999 V2000
   20.1830   11.7560   14.6380 C   0  0  0  0  0  0  0  0  0  0  0  0
   19.3630   10.8120   14.4680 O   0  0  0  0  0  0  0  0  0  0  0  0
   21.4330   11.5120   15.3010 N   0  0  0  0  0  0  0  0  0  0  0  0
   22.0680   12.3050   15.4700 H   0  0  0  0  0  0  0  0  0  0  0  0
   19.8360   13.1280   14.1080 C   0  0  0  0  0  3  0  0  0  0  0  0
   18.8110   13.8870   15.0000 C   0  0  0  0  0  3  0  0  0  0  0  0
   18.9010   15.4350   14.9250 C   0  0  0  0  0  3  0  0  0  0  0  0
   17.9790   16.0510   13.8570 C   0  0  0  0  0  2  0  0  0  0  0  0
   16.9210   15.1590   13.5200 O   0  0  0  0  0  0  0  0  0  0  0  0
   16.5000   14.9540   12.2040 C   0  0  0  0  0  0  0  0  0  0  0  0
   15.1220   14.7190   11.9320 N   0  0  0  0  0  0  0  0  0  0  0  0
   17.3310   14.9410   11.2560 O   0  0  0  0  0  0  0  0  0  0  0  0
   14.4370   14.7280   12.7020 H   0  0  0  0  0  0  0  0  0  0  0  0
   14.8100   14.5400   10.9680 H   0  0  0  0  0  0  0  0  0  0  0  0
   20.2290   15.8480   14.7230 O   0  0  0  0  0  0  0  0  0  0  0  0
   20.3910   15.9800   13.7560 H   0  0  0  0  0  0  0  0  0  0  0  0
   18.9480   13.4860   16.3390 O   0  0  0  0  0  0  0  0  0  0  0  0
   19.6410   12.7820   16.4030 H   0  0  0  0  0  0  0  0  0  0  0  0
   19.3600   13.0200   12.7250 N   0  0  0  0  0  0  0  0  0  0  0  0
   19.5830   12.0840   12.3570 H   0  0  0  0  0  0  0  0  0  0  0  0
   18.3410   13.1640   12.7000 H   0  0  0  0  0  0  0  0  0  0  0  0
   21.8400   10.1760   15.7480 C   0  0  0  0  0  3  0  0  0  0  0  0
   21.4920   10.0260   17.2000 C   0  0  0  0  0  0  0  0  0  0  0  0
   21.7000    8.9300   17.7860 O   0  0  0  0  0  0  0  0  0  0  0  0
   20.9140   11.0820   17.8970 O   0  0  0  0  0  0  0  0  0  0  0  0
   21.2420   12.0060   17.7570 H   0  0  0  0  0  0  0  0  0  0  0  0
   23.3570    9.9680   15.5130 C   0  0  0  0  0  3  0  0  0  0  0  0
   23.6470   10.1060   14.1340 O   0  0  0  0  0  0  0  0  0  0  0  0
   24.2000   10.9800   16.3050 C   0  0  0  0  0  3  0  0  0  0  0  0
   24.5240   11.2050   13.9710 C   0  0  0  0  0  3  0  0  0  0  0  0
   24.5450   12.0140   15.2620 C   0  0  0  0  0  3  0  0  0  0  0  0
   25.3480   10.3720   16.8530 O   0  0  0  0  0  0  0  0  0  0  0  0
   26.0110   10.2140   16.1350 H   0  0  0  0  0  0  0  0  0  0  0  0
   24.1120   12.0530   12.8310 N   0  0  0  0  0  0  0  0  0  0  0  0
   23.4420   13.2250   13.0510 C   0  0  0  0  0  3  0  0  0  0  0  0
   24.4700   11.7140   11.5520 C   0  0  0  0  0  0  0  0  0  0  0  0
   23.0870   14.0720   11.9900 C   0  0  0  0  0  0  0  0  0  0  0  0
   24.1660   12.5330   10.5110 N   0  0  0  0  0  0  0  0  0  0  0  0
   25.0780   10.6330   11.3240 O   0  0  0  0  0  0  0  0  0  0  0  0
   23.4930   13.6970   10.6970 C   0  0  0  0  0  0  0  0  0  0  0  0
   23.2420   14.4280    9.7010 O   0  0  0  0  0  0  0  0  0  0  0  0
   24.4540   12.2650    9.5590 H   0  0  0  0  0  0  0  0  0  0  0  0
   22.2920   15.3040   12.2470 C   0  0  0  0  0  0  0  0  0  0  0  0
   22.7530   16.2140   12.9900 O   0  0  0  0  0  0  0  0  0  0  0  0
   21.0250   15.4650   11.6910 O   0  0  0  0  0  0  0  0  0  0  0  0
   20.2370   15.5740   12.2800 H   0  0  0  0  0  0  0  0  0  0  0  0
   25.8060   12.5910   15.4780 O   0  0  0  0  0  0  0  0  0  0  0  0
   26.5100   11.9130   15.3190 H   0  0  0  0  0  0  0  0  0  0  0  0
  3  1  1  0
  2  1  2  0
  3  4  1  1
 22  3  1  0
  5  1  1  1
  6  5  1  0
  6 17  1  1
  7  8  1  0
  6  7  1  0
  9  8  1  0
 10  9  1  0
 11 10  1  0
 11 13  1  0
 12 10  2  0
 14 11  1  0
  7 15  1  0
 16 15  1  0
 17 18  1  0
  5 19  1  0
 20 19  1  0
 21 19  1  0
 22 23  1  0
 23 24  2  0
 23 25  1  0
 26 25  1  0
 22 27  1  0
 29 27  1  1
 27 28  1  0
 29 32  1  0
 30 34  1  0
 30 28  1  1
 31 30  1  0
 31 47  1  0
 31 29  1  0
 33 32  1  0
 34 35  1  0
 36 34  1  0
 37 43  1  0
 37 35  2  0
 38 40  1  0
 38 36  1  0
 39 36  2  0
 40 37  1  0
 41 40  2  0
 42 38  1  0
 43 44  2  0
 45 43  1  0
 45 46  1  0
 48 47  1  0
M  END
>  <vina_score>  (1) 
-7.0460000000000003

>  <pose_id>  (1) 
1

$$$$

     RDKit          3D

 48 49  0  0  1  0  0  0  0  0999 V2000
   19.8610   10.2030   17.4310 C   0  0  0  0  0  0  0  0  0  0  0  0
   19.5900   11.4260   17.2850 O   0  0  0  0  0  0  0  0  0  0  0  0
   20.7070    9.5350   16.4810 N   0  0  0  0  0  0  0  0  0  0  0  0
   20.8790    8.5260   16.5930 H   0  0  0  0  0  0  0  0  0  0  0  0
   19.3050    9.4700   18.6290 C   0  0  0  0  0  3  0  0  0  0  0  0
   18.6750   10.4210   19.6890 C   0  0  0  0  0  3  0  0  0  0  0  0
   19.6930   11.1040   20.6410 C   0  0  0  0  0  3  0  0  0  0  0  0
   19.2400   11.1220   22.1120 C   0  0  0  0  0  2  0  0  0  0  0  0
   18.1430   12.0120   22.2960 O   0  0  0  0  0  0  0  0  0  0  0  0
   17.1050   11.7520   23.1950 C   0  0  0  0  0  0  0  0  0  0  0  0
   16.0360   10.8930   22.8100 N   0  0  0  0  0  0  0  0  0  0  0  0
   17.0880   12.2960   24.3320 O   0  0  0  0  0  0  0  0  0  0  0  0
   16.0440   10.4460   21.8820 H   0  0  0  0  0  0  0  0  0  0  0  0
   15.2550   10.7200   23.4580 H   0  0  0  0  0  0  0  0  0  0  0  0
   19.9890   12.4070   20.2030 O   0  0  0  0  0  0  0  0  0  0  0  0
   19.5860   13.0630   20.8240 H   0  0  0  0  0  0  0  0  0  0  0  0
   17.7270    9.7250   20.4570 O   0  0  0  0  0  0  0  0  0  0  0  0
   17.7380    8.7680   20.2060 H   0  0  0  0  0  0  0  0  0  0  0  0
   20.3480    8.6290   19.2240 N   0  0  0  0  0  0  0  0  0  0  0  0
   21.2700    9.0570   19.0590 H   0  0  0  0  0  0  0  0  0  0  0  0
   20.1860    8.5450   20.2370 H   0  0  0  0  0  0  0  0  0  0  0  0
   21.3360   10.2350   15.3570 C   0  0  0  0  0  3  0  0  0  0  0  0
   20.7320    9.7350   14.0770 C   0  0  0  0  0  0  0  0  0  0  0  0
   20.1850    8.6000   14.0420 O   0  0  0  0  0  0  0  0  0  0  0  0
   20.7990   10.5050   12.9210 O   0  0  0  0  0  0  0  0  0  0  0  0
   21.5670   10.4060   12.3030 H   0  0  0  0  0  0  0  0  0  0  0  0
   22.8690   10.0170   15.3740 C   0  0  0  0  0  3  0  0  0  0  0  0
   23.3720   10.0760   14.0520 O   0  0  0  0  0  0  0  0  0  0  0  0
   23.5850   11.0760   16.2280 C   0  0  0  0  0  3  0  0  0  0  0  0
   24.2700   11.1650   13.9640 C   0  0  0  0  0  3  0  0  0  0  0  0
   24.0960   12.0490   15.1930 C   0  0  0  0  0  3  0  0  0  0  0  0
   24.6290   10.5040   16.9830 O   0  0  0  0  0  0  0  0  0  0  0  0
   24.5320   10.7670   17.9320 H   0  0  0  0  0  0  0  0  0  0  0  0
   24.0470   11.9440   12.7260 N   0  0  0  0  0  0  0  0  0  0  0  0
   23.3640   13.1280   12.7720 C   0  0  0  0  0  3  0  0  0  0  0  0
   24.5920   11.5280   11.5400 C   0  0  0  0  0  0  0  0  0  0  0  0
   23.1850   13.9110   11.6210 C   0  0  0  0  0  0  0  0  0  0  0  0
   24.4600   12.2840   10.4180 N   0  0  0  0  0  0  0  0  0  0  0  0
   25.2160   10.4340   11.4710 O   0  0  0  0  0  0  0  0  0  0  0  0
   23.7790   13.4580   10.4290 C   0  0  0  0  0  0  0  0  0  0  0  0
   23.6920   14.1280    9.3660 O   0  0  0  0  0  0  0  0  0  0  0  0
   24.8870   11.9590    9.5380 H   0  0  0  0  0  0  0  0  0  0  0  0
   22.3730   15.1580   11.6790 C   0  0  0  0  0  0  0  0  0  0  0  0
   22.6310   16.0430   12.5420 O   0  0  0  0  0  0  0  0  0  0  0  0
   21.3110   15.3600   10.8030 O   0  0  0  0  0  0  0  0  0  0  0  0
   20.4770   15.7840   11.1250 H   0  0  0  0  0  0  0  0  0  0  0  0
   25.3110   12.6400   15.5690 O   0  0  0  0  0  0  0  0  0  0  0  0
   25.9500   12.5890   14.8150 H   0  0  0  0  0  0  0  0  0  0  0  0
  2  1  2  0
  3  4  1  0
  3  1  1  0
  5  1  1  0
  5 19  1  1
  6  5  1  0
  6 17  1  1
  6  7  1  0
  7  8  1  0
  8  9  1  0
  9 10  1  0
 10 12  2  0
 11 10  1  0
 11 14  1  0
 13 11  1  0
  7 15  1  0
 15 16  1  0
 18 17  1  0
 19 21  1  0
 20 19  1  0
 22 23  1  0
 22  3  1  0
 24 23  2  0
 25 23  1  0
 26 25  1  0
 27 22  1  1
 29 27  1  0
 28 27  1  0
 29 32  1  0
 30 34  1  0
 30 28  1  1
 31 30  1  6
 31 47  1  0
 31 29  1  0
 32 33  1  0
 34 35  1  0
 36 34  1  0
 37 43  1  0
 37 35  2  0
 38 40  1  0
 38 36  1  0
 39 36  2  0
 40 37  1  0
 41 40  2  0
 42 38  1  0
 43 44  2  0
 45 46  1  0
 45 43  1  0
 48 47  1  0
M  END
>  <vina_score>  (2) 
-6.9100000000000001

>  <pose_id>  (2) 
2

$$$$

     RDKit          3D

 48 49  0  0  1  0  0  0  0  0999 V2000
   19.9410   10.9250   13.3720 C   0  0  0  0  0  0  0  0  0  0  0  0
   19.4150   10.4430   12.3310 O   0  0  0  0  0  0  0  0  0  0  0  0
   20.9500   10.1840   14.0760 N   0  0  0  0  0  0  0  0  0  0  0  0
   21.3340   10.5760   14.9480 H   0  0  0  0  0  0  0  0  0  0  0  0
   19.5110   12.2960   13.8390 C   0  0  0  0  0  3  0  0  0  0  0  0
   18.4290   12.2500   14.9570 C   0  0  0  0  0  3  0  0  0  0  0  0
   18.3950   13.4950   15.8830 C   0  0  0  0  0  3  0  0  0  0  0  0
   17.1330   14.3580   15.7040 C   0  0  0  0  0  2  0  0  0  0  0  0
   16.8450   14.5590   14.3240 O   0  0  0  0  0  0  0  0  0  0  0  0
   17.1600   15.7430   13.6530 C   0  0  0  0  0  0  0  0  0  0  0  0
   18.5240   16.1030   13.4590 N   0  0  0  0  0  0  0  0  0  0  0  0
   16.2500   16.5150   13.2470 O   0  0  0  0  0  0  0  0  0  0  0  0
   19.2730   15.4770   13.7880 H   0  0  0  0  0  0  0  0  0  0  0  0
   18.7620   16.9880   12.9890 H   0  0  0  0  0  0  0  0  0  0  0  0
   19.5510   14.2770   15.7120 O   0  0  0  0  0  0  0  0  0  0  0  0
   19.3090   15.2360   15.7390 H   0  0  0  0  0  0  0  0  0  0  0  0
   18.6000   11.1000   15.7450 O   0  0  0  0  0  0  0  0  0  0  0  0
   17.7170   10.7750   16.0500 H   0  0  0  0  0  0  0  0  0  0  0  0
   19.0580   13.0910   12.6930 N   0  0  0  0  0  0  0  0  0  0  0  0
   19.5020   12.7390   11.8330 H   0  0  0  0  0  0  0  0  0  0  0  0
   18.0350   13.0170   12.6060 H   0  0  0  0  0  0  0  0  0  0  0  0
   21.4550    8.8930   13.6020 C   0  0  0  0  0  3  0  0  0  0  0  0
   20.9260    7.8100   14.4970 C   0  0  0  0  0  0  0  0  0  0  0  0
   21.4740    6.6750   14.5030 O   0  0  0  0  0  0  0  0  0  0  0  0
   19.8130    8.0430   15.2990 O   0  0  0  0  0  0  0  0  0  0  0  0
   19.0520    8.5700   14.9490 H   0  0  0  0  0  0  0  0  0  0  0  0
   23.0030    8.8930   13.5810 C   0  0  0  0  0  3  0  0  0  0  0  0
   23.4620    9.5580   12.4180 O   0  0  0  0  0  0  0  0  0  0  0  0
   23.5890    9.5900   14.8200 C   0  0  0  0  0  3  0  0  0  0  0  0
   24.2030   10.6950   12.8180 C   0  0  0  0  0  3  0  0  0  0  0  0
   23.9390   10.9610   14.2950 C   0  0  0  0  0  3  0  0  0  0  0  0
   24.7190    8.9010   15.3070 O   0  0  0  0  0  0  0  0  0  0  0  0
   24.4260    8.1730   15.9100 H   0  0  0  0  0  0  0  0  0  0  0  0
   23.8470   11.8780   12.0050 N   0  0  0  0  0  0  0  0  0  0  0  0
   23.0080   12.8340   12.5090 C   0  0  0  0  0  3  0  0  0  0  0  0
   24.4190   12.0680   10.7730 C   0  0  0  0  0  0  0  0  0  0  0  0
   22.6980   13.9900   11.7770 C   0  0  0  0  0  0  0  0  0  0  0  0
   24.1590   13.1950   10.0590 N   0  0  0  0  0  0  0  0  0  0  0  0
   25.1870   11.1960   10.2840 O   0  0  0  0  0  0  0  0  0  0  0  0
   23.3230   14.1550   10.5280 C   0  0  0  0  0  0  0  0  0  0  0  0
   23.1210   15.1870    9.8330 O   0  0  0  0  0  0  0  0  0  0  0  0
   24.6080   13.3230    9.1410 H   0  0  0  0  0  0  0  0  0  0  0  0
   21.7230   14.9800   12.3140 C   0  0  0  0  0  0  0  0  0  0  0  0
   21.5210   15.0610   13.5580 O   0  0  0  0  0  0  0  0  0  0  0  0
   21.0060   15.8120   11.4590 O   0  0  0  0  0  0  0  0  0  0  0  0
   20.4000   15.4220   10.7810 H   0  0  0  0  0  0  0  0  0  0  0  0
   25.0720   11.5000   14.9240 O   0  0  0  0  0  0  0  0  0  0  0  0
   24.9410   12.4710   15.0640 H   0  0  0  0  0  0  0  0  0  0  0  0
  3  1  1  0
  2  1  2  0
  3  4  1  0
  5  1  1  0
  5  6  1  0
  6 17  1  0
  6  7  1  1
  7  8  1  0
  9  8  1  0
 10  9  1  0
 11 10  1  0
 11 13  1  0
 12 10  2  0
 14 11  1  0
 15 16  1  0
 15  7  1  0
 17 18  1  0
  5 19  1  0
 20 19  1  0
 21 19  1  0
 22  3  1  0
 22 23  1  1
 23 24  2  0
 23 25  1  0
 26 25  1  0
 27 22  1  0
 27 29  1  0
 30 28  1  0
 27 28  1  6
 29 32  1  0
 30 34  1  0
 30 31  1  0
 31 29  1  1
 31 47  1  0
 32 33  1  0
 34 35  1  0
 36 34  1  0
 37 43  1  0
 37 35  2  0
 38 40  1  0
 38 36  1  0
 39 36  2  0
 40 37  1  0
 41 40  2  0
 42 38  1  0
 43 44  2  0
 45 43  1  0
 46 45  1  0
 47 48  1  0
M  END
>  <vina_score>  (3) 
-6.8920000000000003

>  <pose_id>  (3) 
3

$$$$

     RDKit          3D

 48 49  0  0  1  0  0  0  0  0999 V2000
   21.8900    9.5920   16.8410 C   0  0  0  0  0  0  0  0  0  0  0  0
   21.4800    8.5510   17.4250 O   0  0  0  0  0  0  0  0  0  0  0  0
   21.2420   10.0450   15.6410 N   0  0  0  0  0  0  0  0  0  0  0  0
   21.6210   10.8710   15.1560 H   0  0  0  0  0  0  0  0  0  0  0  0
   23.0450   10.3590   17.4410 C   0  0  0  0  0  3  0  0  0  0  0  0
   24.3420   10.2800   16.5850 C   0  0  0  0  0  3  0  0  0  0  0  0
   25.1170   11.6180   16.4480 C   0  0  0  0  0  3  0  0  0  0  0  0
   25.0220   12.2410   15.0440 C   0  0  0  0  0  2  0  0  0  0  0  0
   23.7810   12.9200   14.8700 O   0  0  0  0  0  0  0  0  0  0  0  0
   22.9530   12.7030   13.7660 C   0  0  0  0  0  0  0  0  0  0  0  0
   22.4160   13.8170   13.0580 N   0  0  0  0  0  0  0  0  0  0  0  0
   22.6490   11.5340   13.4080 O   0  0  0  0  0  0  0  0  0  0  0  0
   22.6600   14.7750   13.3440 H   0  0  0  0  0  0  0  0  0  0  0  0
   21.7830   13.6630   12.2610 H   0  0  0  0  0  0  0  0  0  0  0  0
   26.4620   11.4560   16.8220 O   0  0  0  0  0  0  0  0  0  0  0  0
   26.6810   12.0880   17.5510 H   0  0  0  0  0  0  0  0  0  0  0  0
   24.0430    9.7930   15.3010 O   0  0  0  0  0  0  0  0  0  0  0  0
   23.0680    9.6400   15.2260 H   0  0  0  0  0  0  0  0  0  0  0  0
   23.2850    9.9020   18.8130 N   0  0  0  0  0  0  0  0  0  0  0  0
   23.1310   10.6820   19.4670 H   0  0  0  0  0  0  0  0  0  0  0  0
   22.6360    9.1340   19.0380 H   0  0  0  0  0  0  0  0  0  0  0  0
   20.0640    9.3770   15.0810 C   0  0  0  0  0  3  0  0  0  0  0  0
   20.4490    8.7260   13.7840 C   0  0  0  0  0  0  0  0  0  0  0  0
   19.6270    7.9810   13.1870 O   0  0  0  0  0  0  0  0  0  0  0  0
   21.7190    8.9190   13.2510 O   0  0  0  0  0  0  0  0  0  0  0  0
   21.8270    9.1070   12.2850 H   0  0  0  0  0  0  0  0  0  0  0  0
   18.9140   10.3930   14.8770 C   0  0  0  0  0  3  0  0  0  0  0  0
   17.9820   10.2750   15.9370 O   0  0  0  0  0  0  0  0  0  0  0  0
   19.4330   11.8390   14.8270 C   0  0  0  0  0  3  0  0  0  0  0  0
   17.9510   11.5020   16.6410 C   0  0  0  0  0  3  0  0  0  0  0  0
   19.1500   12.3430   16.2210 C   0  0  0  0  0  3  0  0  0  0  0  0
   18.7610   12.5900   13.8420 O   0  0  0  0  0  0  0  0  0  0  0  0
   19.2810   13.4080   13.6390 H   0  0  0  0  0  0  0  0  0  0  0  0
   17.9570   11.2790   18.1030 N   0  0  0  0  0  0  0  0  0  0  0  0
   19.1420   11.2040   18.7840 C   0  0  0  0  0  3  0  0  0  0  0  0
   16.7790   11.2280   18.8000 C   0  0  0  0  0  0  0  0  0  0  0  0
   19.1740   11.0460   20.1770 C   0  0  0  0  0  0  0  0  0  0  0  0
   16.7830   11.1070   20.1550 N   0  0  0  0  0  0  0  0  0  0  0  0
   15.6740   11.2840   18.1940 O   0  0  0  0  0  0  0  0  0  0  0  0
   17.9420   11.0200   20.8550 C   0  0  0  0  0  0  0  0  0  0  0  0
   17.8950   10.9180   22.1110 O   0  0  0  0  0  0  0  0  0  0  0  0
   15.8860   11.0820   20.6610 H   0  0  0  0  0  0  0  0  0  0  0  0
   20.4740   10.8900   20.8860 C   0  0  0  0  0  0  0  0  0  0  0  0
   21.4250   11.6850   20.6490 O   0  0  0  0  0  0  0  0  0  0  0  0
   20.6690    9.8600   21.8020 O   0  0  0  0  0  0  0  0  0  0  0  0
   21.0250   10.0600   22.7040 H   0  0  0  0  0  0  0  0  0  0  0  0
   18.8420   13.7110   16.2420 O   0  0  0  0  0  0  0  0  0  0  0  0
   19.6790   14.2380   16.1980 H   0  0  0  0  0  0  0  0  0  0  0  0
  1  2  2  0
  3  1  1  1
  3  4  1  0
  5  1  1  0
  5 19  1  1
  6 17  1  0
  6  5  1  1
  7  8  1  0
  6  7  1  0
  7 15  1  0
  9  8  1  0
 10  9  1  0
 11 13  1  0
 11 10  1  0
 12 10  2  0
 14 11  1  0
 15 16  1  0
 18 17  1  0
 19 21  1  0
 19 20  1  0
 22 23  1  0
 22  3  1  0
 24 23  2  0
 25 23  1  0
 26 25  1  0
 22 27  1  0
 27 28  1  1
 30 28  1  0
 29 32  1  0
 29 27  1  1
 31 29  1  6
 30 34  1  0
 31 47  1  0
 31 30  1  0
 33 32  1  0
 34 35  1  0
 34 36  1  0
 35 37  2  0
 36 38  1  0
 37 40  1  0
 37 43  1  0
 38 42  1  0
 38 40  1  0
 39 36  2  0
 40 41  2  0
 43 45  1  0
 44 43  2  0
 45 46  1  0
 48 47  1  0
M  END
>  <vina_score>  (4) 
-6.7359999999999998

>  <pose_id>  (4) 
4

$$$$

     RDKit          3D

 48 49  0  0  1  0  0  0  0  0999 V2000
   20.3410   13.6570   13.1950 C   0  0  0  0  0  0  0  0  0  0  0  0
   20.1660   14.8280   13.6300 O   0  0  0  0  0  0  0  0  0  0  0  0
   21.5460   13.3260   12.4870 N   0  0  0  0  0  0  0  0  0  0  0  0
   21.6490   12.3760   12.1010 H   0  0  0  0  0  0  0  0  0  0  0  0
   19.2800   12.6150   13.4580 C   0  0  0  0  0  3  0  0  0  0  0  0
   18.6420   12.7340   14.8740 C   0  0  0  0  0  3  0  0  0  0  0  0
   17.3770   13.6300   14.9460 C   0  0  0  0  0  3  0  0  0  0  0  0
   16.6600   13.7890   13.5930 C   0  0  0  0  0  2  0  0  0  0  0  0
   16.7390   15.1330   13.1290 O   0  0  0  0  0  0  0  0  0  0  0  0
   16.9350   15.4560   11.7840 C   0  0  0  0  0  0  0  0  0  0  0  0
   18.2390   15.3670   11.2190 N   0  0  0  0  0  0  0  0  0  0  0  0
   15.9750   15.8580   11.0720 O   0  0  0  0  0  0  0  0  0  0  0  0
   19.0280   15.0390   11.7950 H   0  0  0  0  0  0  0  0  0  0  0  0
   18.3930   15.6300   10.2360 H   0  0  0  0  0  0  0  0  0  0  0  0
   17.6870   14.8900   15.4870 O   0  0  0  0  0  0  0  0  0  0  0  0
   18.6390   15.0990   15.3110 H   0  0  0  0  0  0  0  0  0  0  0  0
   19.5930   13.2130   15.7910 O   0  0  0  0  0  0  0  0  0  0  0  0
   19.1580   13.3660   16.6660 H   0  0  0  0  0  0  0  0  0  0  0  0
   19.8340   11.2750   13.2360 N   0  0  0  0  0  0  0  0  0  0  0  0
   20.8140   11.3550   12.9320 H   0  0  0  0  0  0  0  0  0  0  0  0
   19.7890   10.7350   14.1120 H   0  0  0  0  0  0  0  0  0  0  0  0
   22.6350   14.2870   12.2920 C   0  0  0  0  0  3  0  0  0  0  0  0
   22.3240   15.1320   11.0910 C   0  0  0  0  0  0  0  0  0  0  0  0
   22.9680   14.9650   10.0200 O   0  0  0  0  0  0  0  0  0  0  0  0
   21.3480   16.1200   11.1620 O   0  0  0  0  0  0  0  0  0  0  0  0
   21.5600   17.0470   10.8850 H   0  0  0  0  0  0  0  0  0  0  0  0
   23.9840   13.5470   12.1200 C   0  0  0  0  0  3  0  0  0  0  0  0
   24.5510   13.2890   13.3920 O   0  0  0  0  0  0  0  0  0  0  0  0
   23.8120   12.2150   11.3710 C   0  0  0  0  0  3  0  0  0  0  0  0
   24.6470   11.8880   13.5620 C   0  0  0  0  0  3  0  0  0  0  0  0
   23.8090   11.2020   12.4900 C   0  0  0  0  0  3  0  0  0  0  0  0
   24.8660   12.0000   10.4600 O   0  0  0  0  0  0  0  0  0  0  0  0
   25.5670   12.6840   10.6000 H   0  0  0  0  0  0  0  0  0  0  0  0
   24.2010   11.4810   14.9120 N   0  0  0  0  0  0  0  0  0  0  0  0
   22.8930   11.1480   15.1340 C   0  0  0  0  0  3  0  0  0  0  0  0
   25.1090   11.3550   15.9310 C   0  0  0  0  0  0  0  0  0  0  0  0
   22.4570   10.7090   16.3930 C   0  0  0  0  0  0  0  0  0  0  0  0
   24.7170   10.9010   17.1510 N   0  0  0  0  0  0  0  0  0  0  0  0
   26.3180   11.6670   15.7530 O   0  0  0  0  0  0  0  0  0  0  0  0
   23.4250   10.5730   17.4040 C   0  0  0  0  0  0  0  0  0  0  0  0
   23.1110   10.1480   18.5490 O   0  0  0  0  0  0  0  0  0  0  0  0
   25.4160   10.8030   17.9010 H   0  0  0  0  0  0  0  0  0  0  0  0
   21.0140   10.4250   16.6310 C   0  0  0  0  0  0  0  0  0  0  0  0
   20.3850    9.6490   15.8600 O   0  0  0  0  0  0  0  0  0  0  0  0
   20.3340   11.0220   17.6890 O   0  0  0  0  0  0  0  0  0  0  0  0
   20.8300   11.5570   18.3570 H   0  0  0  0  0  0  0  0  0  0  0  0
   24.3790    9.9800   12.1050 O   0  0  0  0  0  0  0  0  0  0  0  0
   25.0720    9.7180   12.7610 H   0  0  0  0  0  0  0  0  0  0  0  0
  1  2  2  0
  3  1  1  1
  3  4  1  0
  5  1  1  0
  5  6  1  0
  6  7  1  1
  6 17  1  0
  7  8  1  0
  7 15  1  0
  9  8  1  0
 10  9  1  0
 11 10  1  0
 11 13  1  0
 12 10  2  0
 14 11  1  0
 16 15  1  0
 17 18  1  0
  5 19  1  0
 19 21  1  0
 20 19  1  0
 22 23  1  0
 22  3  1  0
 23 25  1  0
 24 23  2  0
 26 25  1  0
 22 27  1  0
 27 28  1  1
 30 28  1  0
 29 32  1  0
 29 27  1  1
 31 29  1  6
 30 34  1  0
 31 47  1  0
 31 30  1  0
 32 33  1  0
 34 35  1  0
 34 36  1  0
 35 37  2  0
 36 38  1  0
 37 43  1  0
 37 40  1  0
 38 40  1  0
 38 42  1  0
 39 36  2  0
 40 41  2  0
 43 45  1  0
 44 43  2  0
 45 46  1  0
 47 48  1  0
M  END
>  <vina_score>  (5) 
-6.681

>  <pose_id>  (5) 
5

$$$$
