
     RDKit          3D

 27 28  0  0  0  0  0  0  0  0999 V2000
   18.6480   10.4330   17.5350 C   0  0  0  0  0  2  0  0  0  0  0  0
   18.2440   11.9110   17.6530 C   0  0  0  0  0  2  0  0  0  0  0  0
   17.1720   12.3320   16.6270 C   0  0  0  0  0  2  0  0  0  0  0  0
   15.8790   12.9090   17.2370 C   0  0  0  0  0  2  0  0  0  0  0  0
   15.2730   12.0110   18.3170 C   0  0  0  0  0  1  0  0  0  0  0  0
   18.7970    9.8360   18.8700 N   0  0  0  0  0  0  0  0  0  0  0  0
   20.1190    9.4030   19.3380 C   0  0  0  0  0  2  0  0  0  0  0  0
   21.1450    9.6250   18.2680 C   0  0  0  0  0  3  0  0  0  0  0  0
   22.2800   10.2780   18.5260 C   0  0  0  0  0  3  0  0  0  0  0  0
   23.2250   10.5450   17.4760 C   0  0  0  0  0  0  0  0  0  0  0  0
   24.0180   10.7800   16.5990 C   0  0  0  0  0  0  0  0  0  0  0  0
   24.9930   11.0660   15.5300 C   0  0  1  0  0  0  0  0  0  0  0  0
   26.4140   10.9390   16.1050 C   0  0  0  0  0  1  0  0  0  0  0  0
   24.7960   10.0550   14.3920 C   0  0  0  0  0  1  0  0  0  0  0  0
   24.7600   12.4950   15.0120 C   0  0  0  0  0  1  0  0  0  0  0  0
   17.6420    9.6020   19.6940 C   0  0  0  0  0  0  0  0  0  0  0  0
   16.7480    8.5870   19.3270 C   0  0  0  0  0  3  0  0  0  0  0  0
   17.3960   10.3630   20.8620 C   0  0  0  0  0  0  0  0  0  0  0  0
   15.6050    8.3380   20.0880 C   0  0  0  0  0  3  0  0  0  0  0  0
   16.2430   10.0950   21.6330 C   0  0  0  0  0  0  0  0  0  0  0  0
   18.2870   11.5240   21.2680 C   0  0  0  0  0  2  0  0  0  0  0  0
   15.3510    9.0900   21.2350 C   0  0  0  0  0  3  0  0  0  0  0  0
   16.0000   10.8300   22.8410 N   0  0  0  0  0  0  0  0  0  0  0  0
   18.3930   11.6550   22.7930 C   0  0  0  0  0  2  0  0  0  0  0  0
   17.0280   11.6480   23.4110 C   0  0  0  0  0  0  0  0  0  0  0  0
   16.7980   12.3190   24.4530 O   0  0  0  0  0  0  0  0  0  0  0  0
   15.0800   10.7680   23.3020 H   0  0  0  0  0  0  0  0  0  0  0  0
  1  2  1  0
  1  6  1  0
  3  4  1  0
  3  2  1  0
  4  5  1  0
  6  7  1  0
  6 16  1  0
  8  9  2  0
  8  7  1  0
 10  9  1  0
 11 10  3  0
 12 13  1  1
 12 11  1  0
 14 12  1  0
 15 12  1  0
 16 18  2  0
 17 16  1  0
 17 19  2  0
 18 21  1  0
 18 20  1  0
 19 22  1  0
 20 23  1  0
 21 24  1  0
 22 20  2  0
 23 27  1  0
 23 25  1  0
 24 25  1  0
 25 26  2  0
M  RAD  8   1   3   2   3   3   3   4   3   5   2   7   3   8   2   9   2
M  RAD  8  13   2  14   2  15   2  17   2  19   2  21   3  22   2  24   3
M  END
>  <vina_score>  (1) 
-7.3129999999999997

>  <pose_id>  (1) 
1

$$$$

     RDKit          3D

 27 28  0  0  0  0  0  0  0  0999 V2000
   19.1130   11.1820   18.0370 C   0  0  0  0  0  2  0  0  0  0  0  0
   18.0050   10.9740   16.9920 C   0  0  0  0  0  2  0  0  0  0  0  0
   18.5290   10.9710   15.5430 C   0  0  0  0  0  2  0  0  0  0  0  0
   19.8080   11.8010   15.3120 C   0  0  0  0  0  2  0  0  0  0  0  0
   20.9430   10.9900   14.6840 C   0  0  0  0  0  1  0  0  0  0  0  0
   19.0970   10.0910   19.0220 N   0  0  0  0  0  0  0  0  0  0  0  0
   20.2790    9.2380   19.1930 C   0  0  0  0  0  2  0  0  0  0  0  0
   21.2950    9.5430   18.1340 C   0  0  0  0  0  3  0  0  0  0  0  0
   22.4740   10.0860   18.4440 C   0  0  0  0  0  3  0  0  0  0  0  0
   23.4120   10.4370   17.4130 C   0  0  0  0  0  0  0  0  0  0  0  0
   24.2000   10.7420   16.5530 C   0  0  0  0  0  0  0  0  0  0  0  0
   25.1680   11.1140   15.5060 C   0  0  1  0  0  0  0  0  0  0  0  0
   26.5910   10.9870   16.0750 C   0  0  0  0  0  1  0  0  0  0  0  0
   24.9960   10.1680   14.3090 C   0  0  0  0  0  1  0  0  0  0  0  0
   24.9030   12.5650   15.0720 C   0  0  0  0  0  1  0  0  0  0  0  0
   17.9020    9.8040   19.7680 C   0  0  0  0  0  0  0  0  0  0  0  0
   17.0610    8.7740   19.3230 C   0  0  0  0  0  3  0  0  0  0  0  0
   17.5650   10.5270   20.9380 C   0  0  0  0  0  0  0  0  0  0  0  0
   15.8830    8.4750   20.0070 C   0  0  0  0  0  3  0  0  0  0  0  0
   16.3750   10.2070   21.6310 C   0  0  0  0  0  0  0  0  0  0  0  0
   18.3950   11.7010   21.4250 C   0  0  0  0  0  2  0  0  0  0  0  0
   15.5380    9.1900   21.1540 C   0  0  0  0  0  3  0  0  0  0  0  0
   16.0390   10.9040   22.8390 N   0  0  0  0  0  0  0  0  0  0  0  0
   18.4060   11.7950   22.9560 C   0  0  0  0  0  2  0  0  0  0  0  0
   17.0070   11.7340   23.4900 C   0  0  0  0  0  0  0  0  0  0  0  0
   16.6950   12.3710   24.5330 O   0  0  0  0  0  0  0  0  0  0  0  0
   15.0960   10.8050   23.2410 H   0  0  0  0  0  0  0  0  0  0  0  0
  1  6  1  0
  2  1  1  0
  3  2  1  0
  4  3  1  0
  5  4  1  0
  6  7  1  0
  6 16  1  0
  8  9  2  0
  8  7  1  0
 10  9  1  0
 11 10  3  0
 12 13  1  1
 12 11  1  0
 14 12  1  0
 15 12  1  0
 16 18  2  0
 17 16  1  0
 17 19  2  0
 18 21  1  0
 18 20  1  0
 19 22  1  0
 20 23  1  0
 21 24  1  0
 22 20  2  0
 23 27  1  0
 23 25  1  0
 24 25  1  0
 25 26  2  0
M  RAD  8   1   3   2   3   3   3   4   3   5   2   7   3   8   2   9   2
M  RAD  8  13   2  14   2  15   2  17   2  19   2  21   3  22   2  24   3
M  END
>  <vina_score>  (2) 
-7.0229999999999997

>  <pose_id>  (2) 
2

$$$$

     RDKit          3D

 27 28  0  0  0  0  0  0  0  0999 V2000
   18.7380   15.2510   14.6690 C   0  0  0  0  0  2  0  0  0  0  0  0
   17.5490   16.1920   14.9160 C   0  0  0  0  0  2  0  0  0  0  0  0
   16.5920   15.6860   16.0140 C   0  0  0  0  0  2  0  0  0  0  0  0
   15.1540   15.3940   15.5390 C   0  0  0  0  0  2  0  0  0  0  0  0
   15.0990   14.4270   14.3560 C   0  0  0  0  0  1  0  0  0  0  0  0
   18.4820   14.4010   13.4960 N   0  0  0  0  0  0  0  0  0  0  0  0
   18.3410   12.9490   13.6570 C   0  0  0  0  0  2  0  0  0  0  0  0
   18.6210   12.5560   15.0760 C   0  0  0  0  0  3  0  0  0  0  0  0
   17.6940   11.9480   15.8200 C   0  0  0  0  0  3  0  0  0  0  0  0
   17.9500   11.6380   17.2000 C   0  0  0  0  0  0  0  0  0  0  0  0
   18.1540   11.3830   18.3600 C   0  0  0  0  0  0  0  0  0  0  0  0
   18.4060   11.0650   19.7770 C   0  0  1  0  0  0  0  0  0  0  0  0
   18.8060    9.5850   19.8920 C   0  0  0  0  0  1  0  0  0  0  0  0
   19.5440   11.9570   20.2940 C   0  0  0  0  0  1  0  0  0  0  0  0
   17.1240   11.3290   20.5840 C   0  0  0  0  0  1  0  0  0  0  0  0
   18.4440   14.9750   12.1790 C   0  0  0  0  0  0  0  0  0  0  0  0
   17.2030   15.3350   11.6350 C   0  0  0  0  0  3  0  0  0  0  0  0
   19.6260   15.1910   11.4280 C   0  0  0  0  0  0  0  0  0  0  0  0
   17.1200   15.8780   10.3530 C   0  0  0  0  0  3  0  0  0  0  0  0
   19.5320   15.7540   10.1360 C   0  0  0  0  0  0  0  0  0  0  0  0
   20.9890   14.7520   11.9320 C   0  0  0  0  0  2  0  0  0  0  0  0
   18.2780   16.0840    9.6040 C   0  0  0  0  0  3  0  0  0  0  0  0
   20.7220   16.0160    9.3780 N   0  0  0  0  0  0  0  0  0  0  0  0
   22.0990   15.7120   11.4820 C   0  0  0  0  0  2  0  0  0  0  0  0
   22.0080   15.9540   10.0050 C   0  0  0  0  0  0  0  0  0  0  0  0
   23.0520   16.1510    9.3280 O   0  0  0  0  0  0  0  0  0  0  0  0
   20.6510   16.2490    8.3780 H   0  0  0  0  0  0  0  0  0  0  0  0
  1  2  1  0
  2  3  1  0
  4  3  1  0
  5  4  1  0
  6  7  1  0
  6  1  1  0
  7  8  1  0
  8  9  2  0
  9 10  1  0
 10 11  3  0
 11 12  1  0
 12 13  1  6
 12 14  1  0
 12 15  1  0
 16  6  1  0
 17 16  1  0
 18 21  1  0
 18 16  2  0
 19 17  2  0
 20 18  1  0
 22 20  2  0
 22 19  1  0
 23 25  1  0
 23 20  1  0
 24 21  1  0
 25 24  1  0
 26 25  2  0
 27 23  1  0
M  RAD  8   1   3   2   3   3   3   4   3   5   2   7   3   8   2   9   2
M  RAD  8  13   2  14   2  15   2  17   2  19   2  21   3  22   2  24   3
M  END
>  <vina_score>  (3) 
-6.6779999999999999

>  <pose_id>  (3) 
3

$$$$

     RDKit          3D

 27 28  0  0  0  0  0  0  0  0999 V2000
   15.9570   12.7880   13.2950 C   0  0  0  0  0  2  0  0  0  0  0  0
   15.0900   14.0270   13.0210 C   0  0  0  0  0  2  0  0  0  0  0  0
   15.1620   14.5060   11.5570 C   0  0  0  0  0  2  0  0  0  0  0  0
   15.7700   15.9090   11.3600 C   0  0  0  0  0  2  0  0  0  0  0  0
   16.3110   16.1350    9.9480 C   0  0  0  0  0  1  0  0  0  0  0  0
   17.0980   13.1430   14.1530 N   0  0  0  0  0  0  0  0  0  0  0  0
   16.9050   14.0380   15.2990 C   0  0  0  0  0  2  0  0  0  0  0  0
   17.1610   13.3020   16.5790 C   0  0  0  0  0  3  0  0  0  0  0  0
   16.2620   12.4510   17.0780 C   0  0  0  0  0  3  0  0  0  0  0  0
   16.4890   11.8020   18.3410 C   0  0  0  0  0  0  0  0  0  0  0  0
   16.6690   11.2620   19.4030 C   0  0  0  0  0  0  0  0  0  0  0  0
   16.8830   10.6010   20.7030 C   0  0  1  0  0  0  0  0  0  0  0  0
   15.5390   10.5170   21.4460 C   0  0  0  0  0  1  0  0  0  0  0  0
   17.4380    9.1910   20.4610 C   0  0  0  0  0  1  0  0  0  0  0  0
   17.8870   11.4280   21.5240 C   0  0  0  0  0  1  0  0  0  0  0  0
   18.4200   12.6800   13.8300 C   0  0  0  0  0  0  0  0  0  0  0  0
   18.7950   11.3860   14.2210 C   0  0  0  0  0  3  0  0  0  0  0  0
   19.3400   13.4920   13.1240 C   0  0  0  0  0  0  0  0  0  0  0  0
   20.0740   10.9040   13.9440 C   0  0  0  0  0  3  0  0  0  0  0  0
   20.6290   12.9890   12.8370 C   0  0  0  0  0  0  0  0  0  0  0  0
   19.0190   14.9250   12.7420 C   0  0  0  0  0  2  0  0  0  0  0  0
   20.9900   11.7020   13.2580 C   0  0  0  0  0  3  0  0  0  0  0  0
   21.5600   13.7840   12.0880 N   0  0  0  0  0  0  0  0  0  0  0  0
   19.6640   15.3180   11.4060 C   0  0  0  0  0  2  0  0  0  0  0  0
   21.1210   14.9670   11.4110 C   0  0  0  0  0  0  0  0  0  0  0  0
   21.9490   15.6800   10.7830 O   0  0  0  0  0  0  0  0  0  0  0  0
   22.5490   13.5010   12.0370 H   0  0  0  0  0  0  0  0  0  0  0  0
  1  6  1  0
  2  1  1  0
  3  2  1  0
  4  3  1  0
  5  4  1  0
  6  7  1  0
  7  8  1  0
  8  9  2  0
  9 10  1  0
 10 11  3  0
 11 12  1  0
 12 13  1  1
 12 15  1  0
 14 12  1  0
 16  6  1  0
 16 17  1  0
 18 16  2  0
 19 17  2  0
 20 18  1  0
 20 22  2  0
 21 18  1  0
 22 19  1  0
 23 20  1  0
 24 25  1  0
 24 21  1  0
 25 23  1  0
 26 25  2  0
 27 23  1  0
M  RAD  8   1   3   2   3   3   3   4   3   5   2   7   3   8   2   9   2
M  RAD  8  13   2  14   2  15   2  17   2  19   2  21   3  22   2  24   3
M  END
>  <vina_score>  (4) 
-6.585

>  <pose_id>  (4) 
4

$$$$

     RDKit          3D

 27 28  0  0  0  0  0  0  0  0999 V2000
   24.2830   12.4160   15.4920 C   0  0  0  0  0  2  0  0  0  0  0  0
   24.9680   11.2840   16.2750 C   0  0  0  0  0  2  0  0  0  0  0  0
   26.3940   10.9770   15.7760 C   0  0  0  0  0  2  0  0  0  0  0  0
   26.6310    9.5180   15.3390 C   0  0  0  0  0  2  0  0  0  0  0  0
   26.6830    8.5420   16.5160 C   0  0  0  0  0  1  0  0  0  0  0  0
   23.3560   11.8590   14.4970 N   0  0  0  0  0  0  0  0  0  0  0  0
   22.0430   11.3560   14.9160 C   0  0  0  0  0  2  0  0  0  0  0  0
   20.9760   12.3550   14.5840 C   0  0  0  0  0  3  0  0  0  0  0  0
   20.0970   12.1270   13.6050 C   0  0  0  0  0  3  0  0  0  0  0  0
   19.1220   13.1220   13.2500 C   0  0  0  0  0  0  0  0  0  0  0  0
   18.3070   13.9550   12.9420 C   0  0  0  0  0  0  0  0  0  0  0  0
   17.3130   14.9770   12.5700 C   0  0  1  0  0  0  0  0  0  0  0  0
   17.3220   16.0900   13.6310 C   0  0  0  0  0  1  0  0  0  0  0  0
   17.6840   15.5580   11.1980 C   0  0  0  0  0  1  0  0  0  0  0  0
   15.9230   14.3220   12.5050 C   0  0  0  0  0  1  0  0  0  0  0  0
   23.7580   11.7320   13.1220 C   0  0  0  0  0  0  0  0  0  0  0  0
   24.2990   10.5130   12.6880 C   0  0  0  0  0  3  0  0  0  0  0  0
   23.6120   12.8000   12.2030 C   0  0  0  0  0  0  0  0  0  0  0  0
   24.7180   10.3530   11.3670 C   0  0  0  0  0  3  0  0  0  0  0  0
   24.0280   12.6220   10.8640 C   0  0  0  0  0  0  0  0  0  0  0  0
   23.1050   14.1650   12.6320 C   0  0  0  0  0  2  0  0  0  0  0  0
   24.5870   11.4030   10.4580 C   0  0  0  0  0  3  0  0  0  0  0  0
   23.8500   13.6810    9.9120 N   0  0  0  0  0  0  0  0  0  0  0  0
   22.2820   14.8390   11.5270 C   0  0  0  0  0  2  0  0  0  0  0  0
   23.0330   14.8120   10.2300 C   0  0  0  0  0  0  0  0  0  0  0  0
   22.9080   15.7550    9.4020 O   0  0  0  0  0  0  0  0  0  0  0  0
   24.3140   13.6260    8.9940 H   0  0  0  0  0  0  0  0  0  0  0  0
  1  2  1  0
  3  2  1  0
  4  3  1  0
  4  5  1  0
  6  7  1  0
  6  1  1  0
  8  7  1  0
  9  8  2  0
 10  9  1  0
 11 10  3  0
 12 11  1  0
 12 13  1  1
 14 12  1  0
 15 12  1  0
 16  6  1  0
 17 16  1  0
 18 21  1  0
 18 16  2  0
 19 17  2  0
 20 18  1  0
 22 20  2  0
 22 19  1  0
 23 25  1  0
 23 20  1  0
 24 21  1  0
 25 24  1  0
 26 25  2  0
 27 23  1  0
M  RAD  8   1   3   2   3   3   3   4   3   5   2   7   3   8   2   9   2
M  RAD  8  13   2  14   2  15   2  17   2  19   2  21   3  22   2  24   3
M  END
>  <vina_score>  (5) 
-6.577

>  <pose_id>  (5) 
5

$$$$
