
     RDKit          3D

 27 29  0  0  0  0  0  0  0  0999 V2000
   16.4360   15.3730   14.2550 C   0  0  0  0  0  2  0  0  0  0  0  0
   16.3830   14.6270   12.9930 N   0  0  0  0  0  0  0  0  0  0  0  0
   15.4280   13.5250   12.8530 C   0  0  0  0  0  1  0  0  0  0  0  0
   16.9870   15.1800   11.8140 C   0  0  0  0  0  0  0  0  0  0  0  0
   16.1620   15.7030   10.8070 C   0  0  0  0  0  3  0  0  0  0  0  0
   18.3910   15.1900   11.6450 C   0  0  0  0  0  0  0  0  0  0  0  0
   16.7170   16.2480    9.6490 C   0  0  0  0  0  3  0  0  0  0  0  0
   18.9430   15.7500   10.4730 C   0  0  0  0  0  0  0  0  0  0  0  0
   19.3250   14.7570   12.7600 C   0  0  0  0  0  2  0  0  0  0  0  0
   18.1010   16.2750    9.4800 C   0  0  0  0  0  3  0  0  0  0  0  0
   20.3650   15.7690   10.2850 N   0  0  0  0  0  0  0  0  0  0  0  0
   20.6260   14.1500   12.2190 C   0  0  0  0  0  2  0  0  0  0  0  0
   21.2210   15.0270   11.1570 C   0  0  0  0  0  0  0  0  0  0  0  0
   22.4700   15.0680   10.9980 O   0  0  0  0  0  0  0  0  0  0  0  0
   20.7710   16.3190    9.5160 H   0  0  0  0  0  0  0  0  0  0  0  0
   16.5050   14.4210   15.4160 C   0  0  0  0  0  0  0  0  0  0  0  0
   17.5930   13.5410   15.5410 C   0  0  0  0  0  3  0  0  0  0  0  0
   15.4660   14.3700   16.3590 C   0  0  0  0  0  3  0  0  0  0  0  0
   17.6450   12.6320   16.6010 C   0  0  0  0  0  3  0  0  0  0  0  0
   15.5230   13.4630   17.4220 C   0  0  0  0  0  3  0  0  0  0  0  0
   16.6130   12.5940   17.5470 C   0  0  0  0  0  0  0  0  0  0  0  0
   16.6700   11.6630   18.6420 C   0  0  0  0  0  0  0  0  0  0  0  0
   16.7150   10.8850   19.5620 C   0  0  0  0  0  0  0  0  0  0  0  0
   16.7660    9.9320   20.6860 C   0  0  1  0  0  0  0  0  0  0  0  0
   18.0420    9.0820   20.5640 C   0  0  0  0  0  1  0  0  0  0  0  0
   16.7820   10.7150   22.0090 C   0  0  0  0  0  1  0  0  0  0  0  0
   15.5270    9.0260   20.6280 C   0  0  0  0  0  1  0  0  0  0  0  0
  1 16  1  0
  2  1  1  0
  3  2  1  0
  4  2  1  0
  5  4  1  0
  6  4  2  0
  6  9  1  0
  7  5  2  0
  8  6  1  0
 10  7  1  0
 10  8  2  0
 11  8  1  0
 11 13  1  0
 12  9  1  0
 13 12  1  0
 14 13  2  0
 15 11  1  0
 16 17  1  0
 16 18  2  0
 17 19  2  0
 18 20  1  0
 19 21  1  0
 20 21  2  0
 21 22  1  0
 22 23  3  0
 23 24  1  0
 24 26  1  1
 25 24  1  0
 27 24  1  0
M  RAD  8   1   3   3   2   5   2   7   2   9   3  10   2  12   3  17   2
M  RAD  6  18   2  19   2  20   2  25   2  26   2  27   2
M  END
>  <vina_score>  (1) 
-8.125

>  <pose_id>  (1) 
1

$$$$

     RDKit          3D

 27 29  0  0  0  0  0  0  0  0999 V2000
   19.6860    9.6670   19.0310 C   0  0  0  0  0  2  0  0  0  0  0  0
   18.7440    8.6190   19.4380 N   0  0  0  0  0  0  0  0  0  0  0  0
   19.2150    7.2370   19.5510 C   0  0  0  0  0  1  0  0  0  0  0  0
   17.4970    8.9830   20.0490 C   0  0  0  0  0  0  0  0  0  0  0  0
   16.3010    8.5000   19.4980 C   0  0  0  0  0  3  0  0  0  0  0  0
   17.4550    9.8290   21.1820 C   0  0  0  0  0  0  0  0  0  0  0  0
   15.0720    8.8330   20.0690 C   0  0  0  0  0  3  0  0  0  0  0  0
   16.2060   10.1540   21.7560 C   0  0  0  0  0  0  0  0  0  0  0  0
   18.7230   10.2680   21.8890 C   0  0  0  0  0  2  0  0  0  0  0  0
   15.0220    9.6550   21.1940 C   0  0  0  0  0  3  0  0  0  0  0  0
   16.1450   11.0110   22.9050 N   0  0  0  0  0  0  0  0  0  0  0  0
   18.5720   11.6490   22.5410 C   0  0  0  0  0  2  0  0  0  0  0  0
   17.3050   11.7240   23.3410 C   0  0  0  0  0  0  0  0  0  0  0  0
   17.2470   12.4550   24.3650 O   0  0  0  0  0  0  0  0  0  0  0  0
   15.2590   11.1140   23.4180 H   0  0  0  0  0  0  0  0  0  0  0  0
   19.0600   10.5500   17.9900 C   0  0  0  0  0  0  0  0  0  0  0  0
   18.7060   10.0200   16.7370 C   0  0  0  0  0  3  0  0  0  0  0  0
   18.8620   11.9190   18.2390 C   0  0  0  0  0  3  0  0  0  0  0  0
   18.1520   10.8450   15.7540 C   0  0  0  0  0  3  0  0  0  0  0  0
   18.3030   12.7400   17.2550 C   0  0  0  0  0  3  0  0  0  0  0  0
   17.9450   12.2060   16.0130 C   0  0  0  0  0  0  0  0  0  0  0  0
   17.3700   13.0540   15.0030 C   0  0  0  0  0  0  0  0  0  0  0  0
   16.8850   13.7670   14.1600 C   0  0  0  0  0  0  0  0  0  0  0  0
   16.2910   14.6440   13.1330 C   0  0  1  0  0  0  0  0  0  0  0  0
   17.3400   14.9150   12.0410 C   0  0  0  0  0  1  0  0  0  0  0  0
   15.0660   13.9440   12.5220 C   0  0  0  0  0  1  0  0  0  0  0  0
   15.8670   15.9650   13.7910 C   0  0  0  0  0  1  0  0  0  0  0  0
  1  2  1  0
  2  3  1  0
  2  4  1  0
  4  6  2  0
  5  4  1  0
  5  7  2  0
  6  8  1  0
  6  9  1  0
  7 10  1  0
  8 11  1  0
  9 12  1  0
 10  8  2  0
 11 13  1  0
 11 15  1  0
 12 13  1  0
 13 14  2  0
 16 18  2  0
 16  1  1  0
 17 16  1  0
 19 21  1  0
 19 17  2  0
 20 18  1  0
 21 20  2  0
 22 21  1  0
 23 22  3  0
 24 27  1  1
 24 23  1  0
 25 24  1  0
 26 24  1  0
M  RAD  8   1   3   3   2   5   2   7   2   9   3  10   2  12   3  17   2
M  RAD  6  18   2  19   2  20   2  25   2  26   2  27   2
M  END
>  <vina_score>  (2) 
-7.9329999999999998

>  <pose_id>  (2) 
2

$$$$

     RDKit          3D

 27 29  0  0  0  0  0  0  0  0999 V2000
   20.2540   12.8350   13.0270 C   0  0  0  0  0  2  0  0  0  0  0  0
   20.3260   14.2970   12.9340 N   0  0  0  0  0  0  0  0  0  0  0  0
   21.1070   15.0400   13.9270 C   0  0  0  0  0  1  0  0  0  0  0  0
   19.9460   14.9530   11.7150 C   0  0  0  0  0  0  0  0  0  0  0  0
   20.9470   15.3890   10.8350 C   0  0  0  0  0  3  0  0  0  0  0  0
   18.5860   15.1790   11.3980 C   0  0  0  0  0  0  0  0  0  0  0  0
   20.6110   16.0290    9.6410 C   0  0  0  0  0  3  0  0  0  0  0  0
   18.2570   15.8210   10.1840 C   0  0  0  0  0  0  0  0  0  0  0  0
   17.4690   14.6110   12.2520 C   0  0  0  0  0  2  0  0  0  0  0  0
   19.2720   16.2430    9.3130 C   0  0  0  0  0  3  0  0  0  0  0  0
   16.8830   16.0600    9.8460 N   0  0  0  0  0  0  0  0  0  0  0  0
   16.2160   15.4960   12.2260 C   0  0  0  0  0  2  0  0  0  0  0  0
   15.8530   15.8640   10.8180 C   0  0  0  0  0  0  0  0  0  0  0  0
   14.6480   16.0530   10.5050 O   0  0  0  0  0  0  0  0  0  0  0  0
   16.6380   16.3740    8.8970 H   0  0  0  0  0  0  0  0  0  0  0  0
   19.9290   12.4210   14.4340 C   0  0  0  0  0  0  0  0  0  0  0  0
   20.6900   11.4240   15.0670 C   0  0  0  0  0  3  0  0  0  0  0  0
   18.8400   12.9920   15.1130 C   0  0  0  0  0  3  0  0  0  0  0  0
   20.3710   11.0130   16.3650 C   0  0  0  0  0  3  0  0  0  0  0  0
   18.5270   12.5830   16.4130 C   0  0  0  0  0  3  0  0  0  0  0  0
   19.2920   11.5950   17.0420 C   0  0  0  0  0  0  0  0  0  0  0  0
   18.9680   11.1760   18.3800 C   0  0  0  0  0  0  0  0  0  0  0  0
   18.6950   10.8300   19.5020 C   0  0  0  0  0  0  0  0  0  0  0  0
   18.3660   10.4030   20.8750 C   0  0  1  0  0  0  0  0  0  0  0  0
   18.3260   11.6410   21.7870 C   0  0  0  0  0  1  0  0  0  0  0  0
   16.9940    9.7100   20.8710 C   0  0  0  0  0  1  0  0  0  0  0  0
   19.4460    9.4270   21.3660 C   0  0  0  0  0  1  0  0  0  0  0  0
  1 16  1  0
  2  1  1  0
  2  3  1  0
  4  2  1  0
  5  4  1  0
  6  4  2  0
  6  9  1  0
  7  5  2  0
  8  6  1  0
 10  7  1  0
 10  8  2  0
 11  8  1  0
 11 13  1  0
 12  9  1  0
 13 12  1  0
 14 13  2  0
 15 11  1  0
 16 17  1  0
 16 18  2  0
 17 19  2  0
 18 20  1  0
 19 21  1  0
 20 21  2  0
 21 22  1  0
 22 23  3  0
 23 24  1  0
 24 27  1  1
 24 25  1  0
 26 24  1  0
M  RAD  8   1   3   3   2   5   2   7   2   9   3  10   2  12   3  17   2
M  RAD  6  18   2  19   2  20   2  25   2  26   2  27   2
M  END
>  <vina_score>  (3) 
-7.7539999999999996

>  <pose_id>  (3) 
3

$$$$

     RDKit          3D

 27 29  0  0  0  0  0  0  0  0999 V2000
   20.1850    8.5920   17.9220 C   0  0  0  0  0  2  0  0  0  0  0  0
   19.4010    8.2510   19.1130 N   0  0  0  0  0  0  0  0  0  0  0  0
   19.1420    6.8420   19.4210 C   0  0  0  0  0  1  0  0  0  0  0  0
   19.1980    9.2370   20.1370 C   0  0  0  0  0  0  0  0  0  0  0  0
   20.3150    9.7960   20.7770 C   0  0  0  0  0  3  0  0  0  0  0  0
   17.8980    9.6370   20.5220 C   0  0  0  0  0  0  0  0  0  0  0  0
   20.1530   10.7560   21.7750 C   0  0  0  0  0  3  0  0  0  0  0  0
   17.7440   10.6150   21.5290 C   0  0  0  0  0  0  0  0  0  0  0  0
   16.6680    9.1590   19.7720 C   0  0  0  0  0  2  0  0  0  0  0  0
   18.8740   11.1680   22.1500 C   0  0  0  0  0  3  0  0  0  0  0  0
   16.4330   11.0330   21.9320 N   0  0  0  0  0  0  0  0  0  0  0  0
   15.4380    9.0630   20.6840 C   0  0  0  0  0  2  0  0  0  0  0  0
   15.2770   10.3150   21.4940 C   0  0  0  0  0  0  0  0  0  0  0  0
   14.1280   10.7050   21.8340 O   0  0  0  0  0  0  0  0  0  0  0  0
   16.3240   11.8560   22.5410 H   0  0  0  0  0  0  0  0  0  0  0  0
   19.4730    9.6410   17.1160 C   0  0  0  0  0  0  0  0  0  0  0  0
   18.3140    9.3080   16.3940 C   0  0  0  0  0  3  0  0  0  0  0  0
   19.9790   10.9500   17.0410 C   0  0  0  0  0  3  0  0  0  0  0  0
   17.6660   10.2730   15.6180 C   0  0  0  0  0  3  0  0  0  0  0  0
   19.3250   11.9140   16.2680 C   0  0  0  0  0  3  0  0  0  0  0  0
   18.1680   11.5790   15.5570 C   0  0  0  0  0  0  0  0  0  0  0  0
   17.4970   12.5740   14.7630 C   0  0  0  0  0  0  0  0  0  0  0  0
   16.9360   13.4110   14.1010 C   0  0  0  0  0  0  0  0  0  0  0  0
   16.2540   14.4360   13.2880 C   0  0  1  0  0  0  0  0  0  0  0  0
   15.0500   13.7930   12.5800 C   0  0  0  0  0  1  0  0  0  0  0  0
   15.7770   15.5720   14.2080 C   0  0  0  0  0  1  0  0  0  0  0  0
   17.2420   14.9840   12.2470 C   0  0  0  0  0  1  0  0  0  0  0  0
  1  2  1  0
  2  3  1  0
  2  4  1  0
  4  6  2  0
  4  5  1  0
  5  7  2  0
  6  8  1  0
  7 10  1  0
  8 11  1  0
  8 10  2  0
  9  6  1  0
  9 12  1  0
 11 15  1  0
 12 13  1  0
 13 14  2  0
 13 11  1  0
 16  1  1  0
 17 16  1  0
 18 16  2  0
 19 17  2  0
 20 18  1  0
 21 19  1  0
 21 20  2  0
 22 21  1  0
 23 22  3  0
 24 23  1  0
 24 26  1  1
 25 24  1  0
 27 24  1  0
M  RAD  8   1   3   3   2   5   2   7   2   9   3  10   2  12   3  17   2
M  RAD  6  18   2  19   2  20   2  25   2  26   2  27   2
M  END
>  <vina_score>  (4) 
-7.609

>  <pose_id>  (4) 
4

$$$$

     RDKit          3D

 27 29  0  0  0  0  0  0  0  0999 V2000
   19.4530   13.8910   12.8760 C   0  0  0  0  0  2  0  0  0  0  0  0
   20.6800   14.6920   12.9380 N   0  0  0  0  0  0  0  0  0  0  0  0
   21.1370   15.2020   14.2330 C   0  0  0  0  0  1  0  0  0  0  0  0
   21.5950   14.6780   11.8320 C   0  0  0  0  0  0  0  0  0  0  0  0
   21.5170   15.6950   10.8690 C   0  0  0  0  0  3  0  0  0  0  0  0
   22.5570   13.6510   11.6890 C   0  0  0  0  0  0  0  0  0  0  0  0
   22.3920   15.7120    9.7830 C   0  0  0  0  0  3  0  0  0  0  0  0
   23.4420   13.6800   10.5890 C   0  0  0  0  0  0  0  0  0  0  0  0
   22.7650   12.6060   12.7690 C   0  0  0  0  0  2  0  0  0  0  0  0
   23.3530   14.7110    9.6420 C   0  0  0  0  0  3  0  0  0  0  0  0
   24.4240   12.6470   10.4280 N   0  0  0  0  0  0  0  0  0  0  0  0
   23.2360   11.2650   12.1910 C   0  0  0  0  0  2  0  0  0  0  0  0
   24.3740   11.4670   11.2350 C   0  0  0  0  0  0  0  0  0  0  0  0
   25.2540   10.5760   11.1020 O   0  0  0  0  0  0  0  0  0  0  0  0
   25.1690   12.7550    9.7270 H   0  0  0  0  0  0  0  0  0  0  0  0
   19.1240   13.3420   14.2360 C   0  0  0  0  0  0  0  0  0  0  0  0
   19.7390   12.1620   14.6850 C   0  0  0  0  0  3  0  0  0  0  0  0
   18.1700   13.9750   15.0490 C   0  0  0  0  0  3  0  0  0  0  0  0
   19.4130   11.6300   15.9370 C   0  0  0  0  0  3  0  0  0  0  0  0
   17.8500   13.4440   16.3030 C   0  0  0  0  0  3  0  0  0  0  0  0
   18.4710   12.2730   16.7490 C   0  0  0  0  0  0  0  0  0  0  0  0
   18.1390   11.7290   18.0400 C   0  0  0  0  0  0  0  0  0  0  0  0
   17.8610   11.2780   19.1230 C   0  0  0  0  0  0  0  0  0  0  0  0
   17.5240   10.7210   20.4460 C   0  0  1  0  0  0  0  0  0  0  0  0
   18.0850   11.6500   21.5370 C   0  0  0  0  0  1  0  0  0  0  0  0
   15.9950   10.6240   20.5760 C   0  0  0  0  0  1  0  0  0  0  0  0
   18.1520    9.3250   20.5750 C   0  0  0  0  0  1  0  0  0  0  0  0
  1  2  1  0
  1 16  1  0
  2  3  1  0
  4  2  1  0
  5  4  1  0
  6  4  2  0
  6  9  1  0
  7  5  2  0
  8  6  1  0
 10  7  1  0
 10  8  2  0
 11  8  1  0
 11 13  1  0
 12  9  1  0
 13 12  1  0
 14 13  2  0
 15 11  1  0
 16 17  1  0
 16 18  2  0
 17 19  2  0
 18 20  1  0
 19 21  1  0
 20 21  2  0
 21 22  1  0
 22 23  3  0
 23 24  1  0
 24 27  1  1
 24 26  1  0
 24 25  1  0
M  RAD  8   1   3   3   2   5   2   7   2   9   3  10   2  12   3  17   2
M  RAD  6  18   2  19   2  20   2  25   2  26   2  27   2
M  END
>  <vina_score>  (5) 
-7.5700000000000003

>  <pose_id>  (5) 
5

$$$$
