
     RDKit          3D

 23 24  0  0  0  0  0  0  0  0999 V2000
   14.5150   10.6580   19.7870 C   0  0  0  0  0  2  0  0  0  0  0  0
   14.5700   11.7020   18.7130 C   0  0  0  0  0  3  0  0  0  0  0  0
   15.7750   13.0270   17.1050 C   0  0  0  0  0  0  0  0  0  0  0  0
   15.7250   12.0190   18.1280 C   0  0  0  0  0  3  0  0  0  0  0  0
   15.8150   13.8730   16.2470 C   0  0  0  0  0  0  0  0  0  0  0  0
   15.8640   14.9050   15.1950 C   0  0  2  0  0  0  0  0  0  0  0  0
   14.9630   16.0830   15.6040 C   0  0  0  0  0  1  0  0  0  0  0  0
   15.3640   14.2980   13.8730 C   0  0  0  0  0  1  0  0  0  0  0  0
   17.3150   15.3870   15.0340 C   0  0  0  0  0  1  0  0  0  0  0  0
   15.8560   10.1440   20.0650 N   0  0  0  0  0  0  0  0  0  0  0  0
   16.2030    9.3580   19.4970 H   0  0  0  0  0  0  0  0  0  0  0  0
   16.7220   10.6750   21.0910 C   0  0  0  0  0  0  0  0  0  0  0  0
   16.2020   11.0010   22.3590 C   0  0  0  0  0  3  0  0  0  0  0  0
   18.1130   10.8330   20.8560 C   0  0  0  0  0  0  0  0  0  0  0  0
   17.0400   11.4300   23.3860 C   0  0  0  0  0  3  0  0  0  0  0  0
   18.9560   11.2390   21.9180 C   0  0  0  0  0  0  0  0  0  0  0  0
   18.7340   10.4840   19.5140 C   0  0  0  0  0  2  0  0  0  0  0  0
   18.4120   11.5370   23.1720 C   0  0  0  0  0  3  0  0  0  0  0  0
   20.3720   11.3510   21.7170 N   0  0  0  0  0  0  0  0  0  0  0  0
   20.0080   11.2860   19.2190 C   0  0  0  0  0  2  0  0  0  0  0  0
   20.9240   11.2880   20.4010 C   0  0  0  0  0  0  0  0  0  0  0  0
   22.1720   11.3080   20.2380 O   0  0  0  0  0  0  0  0  0  0  0  0
   20.9940   11.4770   22.5270 H   0  0  0  0  0  0  0  0  0  0  0  0
  1 10  1  0
  2  1  1  0
  3  4  1  0
  4  2  2  0
  5  3  3  0
  6  7  1  1
  6  5  1  0
  8  6  1  0
  9  6  1  0
 10 12  1  0
 11 10  1  0
 12 13  1  0
 13 15  2  0
 14 12  2  0
 14 16  1  0
 16 18  2  0
 17 14  1  0
 18 15  1  0
 19 16  1  0
 19 23  1  0
 20 17  1  0
 20 21  1  0
 21 19  1  0
 22 21  2  0
M  RAD  8   1   3   2   2   4   2   7   2   8   2   9   2  13   2  15   2
M  RAD  3  17   3  18   2  20   3
M  END
>  <vina_score>  (1) 
-7.4880000000000004

>  <pose_id>  (1) 
1

$$$$

     RDKit          3D

 23 24  0  0  0  0  0  0  0  0999 V2000
   20.4290    9.8860   19.1960 C   0  0  0  0  0  2  0  0  0  0  0  0
   19.5370   10.5740   18.2070 C   0  0  0  0  0  3  0  0  0  0  0  0
   18.3010   12.4940   17.4460 C   0  0  0  0  0  0  0  0  0  0  0  0
   19.1640   11.8410   18.3910 C   0  0  0  0  0  3  0  0  0  0  0  0
   17.5780   13.0420   16.6510 C   0  0  0  0  0  0  0  0  0  0  0  0
   16.6940   13.7080   15.6780 C   0  0  2  0  0  0  0  0  0  0  0  0
   15.7900   14.7060   16.4220 C   0  0  0  0  0  1  0  0  0  0  0  0
   15.8330   12.6460   14.9730 C   0  0  0  0  0  1  0  0  0  0  0  0
   17.5560   14.4520   14.6450 C   0  0  0  0  0  1  0  0  0  0  0  0
   19.6730    8.8910   19.9560 N   0  0  0  0  0  0  0  0  0  0  0  0
   20.1630    8.0390   20.2630 H   0  0  0  0  0  0  0  0  0  0  0  0
   18.2790    9.0350   20.3020 C   0  0  0  0  0  0  0  0  0  0  0  0
   17.3010    8.2730   19.6340 C   0  0  0  0  0  3  0  0  0  0  0  0
   17.8770    9.9080   21.3470 C   0  0  0  0  0  0  0  0  0  0  0  0
   15.9620    8.3350   20.0170 C   0  0  0  0  0  3  0  0  0  0  0  0
   16.5190    9.9360   21.7450 C   0  0  0  0  0  0  0  0  0  0  0  0
   18.8870   10.7430   22.1140 C   0  0  0  0  0  2  0  0  0  0  0  0
   15.5730    9.1520   21.0750 C   0  0  0  0  0  3  0  0  0  0  0  0
   16.1010   10.7690   22.8360 N   0  0  0  0  0  0  0  0  0  0  0  0
   18.2840   12.0310   22.6900 C   0  0  0  0  0  2  0  0  0  0  0  0
   16.9860   11.7500   23.3790 C   0  0  0  0  0  0  0  0  0  0  0  0
   16.6420   12.4230   24.3860 O   0  0  0  0  0  0  0  0  0  0  0  0
   15.1570   10.6580   23.2310 H   0  0  0  0  0  0  0  0  0  0  0  0
  1 10  1  0
  2  4  2  0
  2  1  1  0
  3  4  1  0
  5  3  3  0
  6  7  1  1
  6  5  1  0
  8  6  1  0
  9  6  1  0
 10 11  1  0
 10 12  1  0
 12 14  2  0
 13 15  2  0
 13 12  1  0
 14 16  1  0
 14 17  1  0
 15 18  1  0
 16 19  1  0
 17 20  1  0
 18 16  2  0
 19 23  1  0
 19 21  1  0
 20 21  1  0
 21 22  2  0
M  RAD  8   1   3   2   2   4   2   7   2   8   2   9   2  13   2  15   2
M  RAD  3  17   3  18   2  20   3
M  END
>  <vina_score>  (2) 
-7.133

>  <pose_id>  (2) 
2

$$$$

     RDKit          3D

 23 24  0  0  0  0  0  0  0  0999 V2000
   19.9190    8.1000   18.7650 C   0  0  0  0  0  2  0  0  0  0  0  0
   20.9400    8.6710   17.8270 C   0  0  0  0  0  3  0  0  0  0  0  0
   22.7840   10.1390   17.3410 C   0  0  0  0  0  0  0  0  0  0  0  0
   21.8130    9.5870   18.2450 C   0  0  0  0  0  3  0  0  0  0  0  0
   23.5980   10.6010   16.5810 C   0  0  0  0  0  0  0  0  0  0  0  0
   24.5950   11.1620   15.6510 C   0  0  2  0  0  0  0  0  0  0  0  0
   24.0810   12.5090   15.1170 C   0  0  0  0  0  1  0  0  0  0  0  0
   24.8020   10.1800   14.4840 C   0  0  0  0  0  1  0  0  0  0  0  0
   25.9200   11.3680   16.4020 C   0  0  0  0  0  1  0  0  0  0  0  0
   19.4580    9.1250   19.7000 N   0  0  0  0  0  0  0  0  0  0  0  0
   20.1480    9.8010   20.0580 H   0  0  0  0  0  0  0  0  0  0  0  0
   18.0920    9.2450   20.1510 C   0  0  0  0  0  0  0  0  0  0  0  0
   17.0700    8.5120   19.5160 C   0  0  0  0  0  3  0  0  0  0  0  0
   17.7640   10.0620   21.2640 C   0  0  0  0  0  0  0  0  0  0  0  0
   15.7620    8.5480   19.9960 C   0  0  0  0  0  3  0  0  0  0  0  0
   16.4380   10.0630   21.7590 C   0  0  0  0  0  0  0  0  0  0  0  0
   18.8250   10.8630   21.9990 C   0  0  0  0  0  2  0  0  0  0  0  0
   15.4480    9.3090   21.1190 C   0  0  0  0  0  3  0  0  0  0  0  0
   16.0980   10.8380   22.9170 N   0  0  0  0  0  0  0  0  0  0  0  0
   18.2620   12.1170   22.6810 C   0  0  0  0  0  2  0  0  0  0  0  0
   17.0170   11.7950   23.4450 C   0  0  0  0  0  0  0  0  0  0  0  0
   16.7450   12.4150   24.5060 O   0  0  0  0  0  0  0  0  0  0  0  0
   15.1840   10.7020   23.3720 H   0  0  0  0  0  0  0  0  0  0  0  0
  1 10  1  0
  2  4  2  0
  2  1  1  0
  3  4  1  0
  5  3  3  0
  6  9  1  1
  6  5  1  0
  7  6  1  0
  8  6  1  0
 10 11  1  0
 10 12  1  0
 12 14  2  0
 13 15  2  0
 13 12  1  0
 14 16  1  0
 14 17  1  0
 15 18  1  0
 16 19  1  0
 17 20  1  0
 18 16  2  0
 19 23  1  0
 19 21  1  0
 20 21  1  0
 21 22  2  0
M  RAD  8   1   3   2   2   4   2   7   2   8   2   9   2  13   2  15   2
M  RAD  3  17   3  18   2  20   3
M  END
>  <vina_score>  (3) 
-6.883

>  <pose_id>  (3) 
3

$$$$

     RDKit          3D

 23 24  0  0  0  0  0  0  0  0999 V2000
   21.0300   10.5250   21.0330 C   0  0  0  0  0  2  0  0  0  0  0  0
   21.9410   10.8710   19.8950 C   0  0  0  0  0  3  0  0  0  0  0  0
   22.8880   10.4250   17.7270 C   0  0  0  0  0  0  0  0  0  0  0  0
   22.0050   10.0960   18.8130 C   0  0  0  0  0  3  0  0  0  0  0  0
   23.6280   10.7040   16.8170 C   0  0  0  0  0  0  0  0  0  0  0  0
   24.5300   11.0460   15.7020 C   0  0  2  0  0  0  0  0  0  0  0  0
   25.9720   11.1330   16.2330 C   0  0  0  0  0  1  0  0  0  0  0  0
   24.1070   12.4020   15.1120 C   0  0  0  0  0  1  0  0  0  0  0  0
   24.4340    9.9530   14.6260 C   0  0  0  0  0  1  0  0  0  0  0  0
   19.9610   11.5170   21.1500 N   0  0  0  0  0  0  0  0  0  0  0  0
   20.1560   12.4790   20.8400 H   0  0  0  0  0  0  0  0  0  0  0  0
   18.6500   11.2240   21.6760 C   0  0  0  0  0  0  0  0  0  0  0  0
   18.2580   11.7360   22.9290 C   0  0  0  0  0  3  0  0  0  0  0  0
   17.7200   10.4600   20.9230 C   0  0  0  0  0  0  0  0  0  0  0  0
   16.9650   11.5370   23.4090 C   0  0  0  0  0  3  0  0  0  0  0  0
   16.4010   10.2940   21.4100 C   0  0  0  0  0  0  0  0  0  0  0  0
   18.0790    9.8960   19.5590 C   0  0  0  0  0  2  0  0  0  0  0  0
   16.0360   10.8310   22.6490 C   0  0  0  0  0  3  0  0  0  0  0  0
   15.4300    9.5740   20.6380 N   0  0  0  0  0  0  0  0  0  0  0  0
   17.2860    8.6310   19.2090 C   0  0  0  0  0  2  0  0  0  0  0  0
   15.8290    8.8170   19.4950 C   0  0  0  0  0  0  0  0  0  0  0  0
   14.9630    8.2510   18.7770 O   0  0  0  0  0  0  0  0  0  0  0  0
   14.4370    9.6030   20.9100 H   0  0  0  0  0  0  0  0  0  0  0  0
  1 10  1  0
  2  1  1  0
  3  4  1  0
  4  2  2  0
  5  3  3  0
  6  7  1  1
  6  5  1  0
  8  6  1  0
  9  6  1  0
 10 12  1  0
 11 10  1  0
 12 13  1  0
 13 15  2  0
 14 16  1  0
 14 12  2  0
 16 18  2  0
 17 14  1  0
 18 15  1  0
 19 23  1  0
 19 16  1  0
 20 21  1  0
 20 17  1  0
 21 19  1  0
 22 21  2  0
M  RAD  8   1   3   2   2   4   2   7   2   8   2   9   2  13   2  15   2
M  RAD  3  17   3  18   2  20   3
M  END
>  <vina_score>  (4) 
-6.8710000000000004

>  <pose_id>  (4) 
4

$$$$

     RDKit          3D

 23 24  0  0  0  0  0  0  0  0999 V2000
   20.0660   11.0370   15.1890 C   0  0  0  0  0  2  0  0  0  0  0  0
   19.0170   11.8790   14.5270 C   0  0  0  0  0  3  0  0  0  0  0  0
   18.3480   13.7610   13.1850 C   0  0  0  0  0  0  0  0  0  0  0  0
   19.3560   12.9500   13.8090 C   0  0  0  0  0  3  0  0  0  0  0  0
   17.5010   14.4400   12.6600 C   0  0  0  0  0  0  0  0  0  0  0  0
   16.4670   15.2720   12.0170 C   0  0  2  0  0  0  0  0  0  0  0  0
   15.1730   14.4520   11.8850 C   0  0  0  0  0  1  0  0  0  0  0  0
   16.9620   15.6990   10.6240 C   0  0  0  0  0  1  0  0  0  0  0  0
   16.2130   16.5150   12.8850 C   0  0  0  0  0  1  0  0  0  0  0  0
   21.3120   11.7900   15.3270 N   0  0  0  0  0  0  0  0  0  0  0  0
   21.2510   12.7930   15.5510 H   0  0  0  0  0  0  0  0  0  0  0  0
   22.6230   11.2080   15.1680 C   0  0  0  0  0  0  0  0  0  0  0  0
   23.2860   10.6420   16.2750 C   0  0  0  0  0  3  0  0  0  0  0  0
   23.2440   11.1540   13.8930 C   0  0  0  0  0  0  0  0  0  0  0  0
   24.5120    9.9980   16.1200 C   0  0  0  0  0  3  0  0  0  0  0  0
   24.4730   10.4690   13.7460 C   0  0  0  0  0  0  0  0  0  0  0  0
   22.5710   11.7330   12.6600 C   0  0  0  0  0  2  0  0  0  0  0  0
   25.0980    9.8990   14.8610 C   0  0  0  0  0  3  0  0  0  0  0  0
   25.0880   10.3540   12.4550 N   0  0  0  0  0  0  0  0  0  0  0  0
   23.5720   12.1760   11.5850 C   0  0  0  0  0  2  0  0  0  0  0  0
   24.6050   11.1200   11.3510 C   0  0  0  0  0  0  0  0  0  0  0  0
   25.0990   10.9570   10.2040 O   0  0  0  0  0  0  0  0  0  0  0  0
   25.8850    9.7140   12.3240 H   0  0  0  0  0  0  0  0  0  0  0  0
  1 10  1  0
  2  1  1  0
  3  4  1  0
  4  2  2  0
  5  3  3  0
  6  5  1  0
  6  9  1  1
  7  6  1  0
  8  6  1  0
 10 11  1  0
 12 10  1  0
 12 13  1  0
 14 12  2  0
 15 13  2  0
 16 14  1  0
 16 18  2  0
 17 14  1  0
 18 15  1  0
 19 16  1  0
 20 17  1  0
 21 20  1  0
 21 19  1  0
 22 21  2  0
 23 19  1  0
M  RAD  8   1   3   2   2   4   2   7   2   8   2   9   2  13   2  15   2
M  RAD  3  17   3  18   2  20   3
M  END
>  <vina_score>  (5) 
-6.5609999999999999

>  <pose_id>  (5) 
5

$$$$
