
     RDKit          3D

 23 24  0  0  0  0  0  0  0  0999 V2000
   14.6350   10.6290   19.7790 C   0  0  0  0  0  2  0  0  0  0  0  0
   15.0670   11.6010   18.7690 C   0  0  0  0  0  0  0  0  0  0  0  0
   15.7840    9.8580   20.2720 N   0  0  0  0  0  0  0  0  0  0  0  0
   15.8550    8.4230   19.9940 C   0  0  0  0  0  1  0  0  0  0  0  0
   16.7090   10.4490   21.2050 C   0  0  0  0  0  0  0  0  0  0  0  0
   16.2530   10.8920   22.4570 C   0  0  0  0  0  3  0  0  0  0  0  0
   18.0670   10.6050   20.8710 C   0  0  0  0  0  0  0  0  0  0  0  0
   17.1350   11.4890   23.3610 C   0  0  0  0  0  3  0  0  0  0  0  0
   18.9520   11.2010   21.7850 C   0  0  0  0  0  0  0  0  0  0  0  0
   18.5570   10.1310   19.6470 O   0  0  0  0  0  0  0  0  0  0  0  0
   18.4830   11.6440   23.0280 C   0  0  0  0  0  3  0  0  0  0  0  0
   20.3420   11.3010   21.4540 N   0  0  0  0  0  0  0  0  0  0  0  0
   19.8060   10.5500   19.0910 C   0  0  0  0  0  2  0  0  0  0  0  0
   20.8010   10.8860   20.1640 C   0  0  0  0  0  0  0  0  0  0  0  0
   22.0340   10.8700   19.9100 O   0  0  0  0  0  0  0  0  0  0  0  0
   21.0120   11.6720   22.1440 H   0  0  0  0  0  0  0  0  0  0  0  0
   15.4310   12.3930   17.9370 C   0  0  0  0  0  0  0  0  0  0  0  0
   15.8530   13.3230   16.9630 C   0  0  0  0  0  0  0  0  0  0  0  0
   16.2120   14.1190   16.1310 C   0  0  0  0  0  0  0  0  0  0  0  0
   16.6520   15.0930   15.1150 C   0  0  1  0  0  0  0  0  0  0  0  0
   18.1320   14.8390   14.7860 C   0  0  0  0  0  1  0  0  0  0  0  0
   15.7960   14.9190   13.8500 C   0  0  0  0  0  1  0  0  0  0  0  0
   16.4760   16.5150   15.6750 C   0  0  0  0  0  1  0  0  0  0  0  0
  1  3  1  0
  2  1  1  0
  3  5  1  0
  4  3  1  0
  5  6  1  0
  6  8  2  0
  7  5  2  0
  7  9  1  0
  9 11  2  0
 10  7  1  0
 11  8  1  0
 12  9  1  0
 12 16  1  0
 13 10  1  0
 13 14  1  0
 14 12  1  0
 15 14  2  0
 17  2  3  0
 18 17  1  0
 19 18  3  0
 20 23  1  1
 20 19  1  0
 21 20  1  0
 22 20  1  0
M  RAD  8   1   3   4   2   6   2   8   2  11   2  13   3  21   2  22   2
M  RAD  1  23   2
M  END
>  <vina_score>  (1) 
-7.1970000000000001

>  <pose_id>  (1) 
1

$$$$

     RDKit          3D

 23 24  0  0  0  0  0  0  0  0999 V2000
   19.7900    9.9040   19.1400 C   0  0  0  0  0  2  0  0  0  0  0  0
   19.0280   10.9050   18.3850 C   0  0  0  0  0  0  0  0  0  0  0  0
   18.8930    8.8610   19.6550 N   0  0  0  0  0  0  0  0  0  0  0  0
   19.2220    7.4550   19.4190 C   0  0  0  0  0  1  0  0  0  0  0  0
   17.5990    9.2100   20.1820 C   0  0  0  0  0  0  0  0  0  0  0  0
   16.4370    8.7280   19.5590 C   0  0  0  0  0  3  0  0  0  0  0  0
   17.4820   10.0460   21.3080 C   0  0  0  0  0  0  0  0  0  0  0  0
   15.1750    9.0790   20.0450 C   0  0  0  0  0  3  0  0  0  0  0  0
   16.2110   10.3920   21.7980 C   0  0  0  0  0  0  0  0  0  0  0  0
   18.6250   10.5040   21.9760 O   0  0  0  0  0  0  0  0  0  0  0  0
   15.0600    9.9090   21.1640 C   0  0  0  0  0  3  0  0  0  0  0  0
   16.1090   11.1970   22.9790 N   0  0  0  0  0  0  0  0  0  0  0  0
   18.6100   11.6080   22.8830 C   0  0  0  0  0  2  0  0  0  0  0  0
   17.2900   11.7210   23.5910 C   0  0  0  0  0  0  0  0  0  0  0  0
   17.2120   12.3340   24.6880 O   0  0  0  0  0  0  0  0  0  0  0  0
   15.1840   11.3990   23.3870 H   0  0  0  0  0  0  0  0  0  0  0  0
   18.3940   11.7250   17.7720 C   0  0  0  0  0  0  0  0  0  0  0  0
   17.6480   12.6820   17.0510 C   0  0  0  0  0  0  0  0  0  0  0  0
   17.0100   13.4980   16.4340 C   0  0  0  0  0  0  0  0  0  0  0  0
   16.2300   14.4980   15.6800 C   0  0  1  0  0  0  0  0  0  0  0  0
   17.1940   15.5310   15.0740 C   0  0  0  0  0  1  0  0  0  0  0  0
   15.4520   13.7870   14.5610 C   0  0  0  0  0  1  0  0  0  0  0  0
   15.2490   15.1950   16.6380 C   0  0  0  0  0  1  0  0  0  0  0  0
  1  3  1  0
  2  1  1  0
  3  5  1  0
  4  3  1  0
  5  7  2  0
  6  8  2  0
  6  5  1  0
  7  9  1  0
  7 10  1  0
  8 11  1  0
  9 12  1  0
 10 13  1  0
 11  9  2  0
 12 16  1  0
 12 14  1  0
 13 14  1  0
 14 15  2  0
 17  2  3  0
 18 17  1  0
 19 18  3  0
 20 19  1  0
 20 23  1  1
 21 20  1  0
 22 20  1  0
M  RAD  8   1   3   4   2   6   2   8   2  11   2  13   3  21   2  22   2
M  RAD  1  23   2
M  END
>  <vina_score>  (2) 
-6.7869999999999999

>  <pose_id>  (2) 
2

$$$$

     RDKit          3D

 23 24  0  0  0  0  0  0  0  0999 V2000
   17.6020   16.4950   11.4650 C   0  0  0  0  0  2  0  0  0  0  0  0
   18.8710   15.7630   11.5500 C   0  0  0  0  0  0  0  0  0  0  0  0
   16.4960   15.6590   11.9470 N   0  0  0  0  0  0  0  0  0  0  0  0
   15.4290   15.2800   11.0200 C   0  0  0  0  0  1  0  0  0  0  0  0
   16.3390   15.4030   13.3570 C   0  0  0  0  0  0  0  0  0  0  0  0
   15.9330   16.4390   14.2140 C   0  0  0  0  0  3  0  0  0  0  0  0
   16.6040   14.1290   13.8910 C   0  0  0  0  0  0  0  0  0  0  0  0
   15.8010   16.2120   15.5850 C   0  0  0  0  0  3  0  0  0  0  0  0
   16.4640   13.9020   15.2710 C   0  0  0  0  0  0  0  0  0  0  0  0
   16.9650   13.0670   13.0520 O   0  0  0  0  0  0  0  0  0  0  0  0
   16.0640   14.9460   16.1160 C   0  0  0  0  0  3  0  0  0  0  0  0
   16.6820   12.5860   15.7920 N   0  0  0  0  0  0  0  0  0  0  0  0
   17.5790   11.8680   13.5310 C   0  0  0  0  0  2  0  0  0  0  0  0
   17.1320   11.5400   14.9270 C   0  0  0  0  0  0  0  0  0  0  0  0
   17.2180   10.3600   15.3570 O   0  0  0  0  0  0  0  0  0  0  0  0
   16.5140   12.3920   16.7900 H   0  0  0  0  0  0  0  0  0  0  0  0
   19.9070   15.1530   11.6190 C   0  0  0  0  0  0  0  0  0  0  0  0
   21.1240   14.4420   11.6980 C   0  0  0  0  0  0  0  0  0  0  0  0
   22.1640   13.8360   11.7650 C   0  0  0  0  0  0  0  0  0  0  0  0
   23.4370   13.0960   11.8460 C   0  0  1  0  0  0  0  0  0  0  0  0
   24.2550   13.6340   13.0320 C   0  0  0  0  0  1  0  0  0  0  0  0
   23.1370   11.6020   12.0500 C   0  0  0  0  0  1  0  0  0  0  0  0
   24.2180   13.2980   10.5360 C   0  0  0  0  0  1  0  0  0  0  0  0
  1  2  1  0
  1  3  1  0
  2 17  3  0
  3  5  1  0
  4  3  1  0
  5  7  2  0
  5  6  1  0
  6  8  2  0
  7  9  1  0
  8 11  1  0
  9 12  1  0
  9 11  2  0
 10 13  1  0
 10  7  1  0
 12 16  1  0
 13 14  1  0
 14 15  2  0
 14 12  1  0
 17 18  1  0
 18 19  3  0
 19 20  1  0
 20 22  1  1
 20 21  1  0
 23 20  1  0
M  RAD  8   1   3   4   2   6   2   8   2  11   2  13   3  21   2  22   2
M  RAD  1  23   2
M  END
>  <vina_score>  (3) 
-6.7249999999999996

>  <pose_id>  (3) 
3

$$$$

     RDKit          3D

 23 24  0  0  0  0  0  0  0  0999 V2000
   19.9210    8.7720   19.1900 C   0  0  0  0  0  2  0  0  0  0  0  0
   21.0290    9.2810   18.3730 C   0  0  0  0  0  0  0  0  0  0  0  0
   18.6950    9.5320   18.9190 N   0  0  0  0  0  0  0  0  0  0  0  0
   18.7280   10.6170   17.9380 C   0  0  0  0  0  1  0  0  0  0  0  0
   17.5380    9.3710   19.7640 C   0  0  0  0  0  0  0  0  0  0  0  0
   16.5260    8.4690   19.3980 C   0  0  0  0  0  3  0  0  0  0  0  0
   17.4000   10.1210   20.9460 C   0  0  0  0  0  0  0  0  0  0  0  0
   15.3890    8.3210   20.1940 C   0  0  0  0  0  3  0  0  0  0  0  0
   16.2570    9.9650   21.7480 C   0  0  0  0  0  0  0  0  0  0  0  0
   18.4160   10.9940   21.3570 O   0  0  0  0  0  0  0  0  0  0  0  0
   15.2520    9.0660   21.3690 C   0  0  0  0  0  3  0  0  0  0  0  0
   16.1570   10.6930   22.9780 N   0  0  0  0  0  0  0  0  0  0  0  0
   18.2130   12.0270   22.3250 C   0  0  0  0  0  2  0  0  0  0  0  0
   17.1680   11.6400   23.3320 C   0  0  0  0  0  0  0  0  0  0  0  0
   17.1400   12.1990   24.4600 O   0  0  0  0  0  0  0  0  0  0  0  0
   15.3560   10.5340   23.6070 H   0  0  0  0  0  0  0  0  0  0  0  0
   21.9340    9.7090   17.7030 C   0  0  0  0  0  0  0  0  0  0  0  0
   22.9960   10.2130   16.9210 C   0  0  0  0  0  0  0  0  0  0  0  0
   23.9040   10.6430   16.2560 C   0  0  0  0  0  0  0  0  0  0  0  0
   25.0160   11.1710   15.4430 C   0  0  1  0  0  0  0  0  0  0  0  0
   26.3320   10.9890   16.2160 C   0  0  0  0  0  1  0  0  0  0  0  0
   25.0760   10.3990   14.1150 C   0  0  0  0  0  1  0  0  0  0  0  0
   24.7710   12.6650   15.1680 C   0  0  0  0  0  1  0  0  0  0  0  0
  2  1  1  0
  3  1  1  0
  3  5  1  0
  4  3  1  0
  5  7  2  0
  6  5  1  0
  6  8  2  0
  7 10  1  0
  7  9  1  0
  8 11  1  0
  9 12  1  0
 10 13  1  0
 11  9  2  0
 12 14  1  0
 12 16  1  0
 13 14  1  0
 14 15  2  0
 17  2  3  0
 18 17  1  0
 19 18  3  0
 20 21  1  1
 20 19  1  0
 22 20  1  0
 23 20  1  0
M  RAD  8   1   3   4   2   6   2   8   2  11   2  13   3  21   2  22   2
M  RAD  1  23   2
M  END
>  <vina_score>  (4) 
-6.5510000000000002

>  <pose_id>  (4) 
4

$$$$

     RDKit          3D

 23 24  0  0  0  0  0  0  0  0999 V2000
   15.7150   13.6260   13.4430 C   0  0  0  0  0  2  0  0  0  0  0  0
   16.2770   13.0930   14.6890 C   0  0  0  0  0  0  0  0  0  0  0  0
   16.1630   15.0090   13.2300 N   0  0  0  0  0  0  0  0  0  0  0  0
   15.9010   16.0120   14.2620 C   0  0  0  0  0  1  0  0  0  0  0  0
   16.6460   15.4250   11.9380 C   0  0  0  0  0  0  0  0  0  0  0  0
   15.7410   15.8890   10.9700 C   0  0  0  0  0  3  0  0  0  0  0  0
   18.0160   15.3560   11.6250 C   0  0  0  0  0  0  0  0  0  0  0  0
   16.1930   16.2730    9.7050 C   0  0  0  0  0  3  0  0  0  0  0  0
   18.4680   15.7490   10.3540 C   0  0  0  0  0  0  0  0  0  0  0  0
   18.9450   14.9400   12.5880 O   0  0  0  0  0  0  0  0  0  0  0  0
   17.5540   16.2050    9.3950 C   0  0  0  0  0  3  0  0  0  0  0  0
   19.8720   15.7270   10.0700 N   0  0  0  0  0  0  0  0  0  0  0  0
   20.2700   14.5140   12.2610 C   0  0  0  0  0  2  0  0  0  0  0  0
   20.7900   15.2180   11.0410 C   0  0  0  0  0  0  0  0  0  0  0  0
   22.0300   15.3000   10.8390 O   0  0  0  0  0  0  0  0  0  0  0  0
   20.2210   16.0780    9.1660 H   0  0  0  0  0  0  0  0  0  0  0  0
   16.7390   12.6660   15.7170 C   0  0  0  0  0  0  0  0  0  0  0  0
   17.2840   12.1630   16.9180 C   0  0  0  0  0  0  0  0  0  0  0  0
   17.7500   11.7320   17.9420 C   0  0  0  0  0  0  0  0  0  0  0  0
   18.3220   11.2040   19.1950 C   0  0  1  0  0  0  0  0  0  0  0  0
   19.5240   12.0720   19.6010 C   0  0  0  0  0  1  0  0  0  0  0  0
   17.2490   11.2470   20.2940 C   0  0  0  0  0  1  0  0  0  0  0  0
   18.7770    9.7530   18.9660 C   0  0  0  0  0  1  0  0  0  0  0  0
  1  2  1  0
  2 17  3  0
  3  1  1  0
  3  4  1  0
  5  3  1  0
  6  5  1  0
  7  5  2  0
  7 10  1  0
  8  6  2  0
  9  7  1  0
 11  8  1  0
 11  9  2  0
 12  9  1  0
 12 14  1  0
 13 10  1  0
 14 13  1  0
 15 14  2  0
 16 12  1  0
 17 18  1  0
 18 19  3  0
 19 20  1  0
 20 21  1  1
 20 22  1  0
 23 20  1  0
M  RAD  8   1   3   4   2   6   2   8   2  11   2  13   3  21   2  22   2
M  RAD  1  23   2
M  END
>  <vina_score>  (5) 
-6.5499999999999998

>  <pose_id>  (5) 
5

$$$$
