
     RDKit          3D

 25 26  0  0  0  0  0  0  0  0999 V2000
   14.4140   10.7650   20.2930 C   0  0  0  0  0  2  0  0  0  0  0  0
   15.5550    9.9320   20.7050 N   0  0  0  0  0  0  0  0  0  0  0  0
   15.4500    8.4560   20.6070 C   0  0  0  0  0  3  0  0  0  0  0  0
   14.1490    7.9530   21.2550 C   0  0  0  0  0  1  0  0  0  0  0  0
   15.5240    7.9430   19.1570 C   0  0  0  0  0  1  0  0  0  0  0  0
   16.5500   10.5610   21.5390 C   0  0  0  0  0  0  0  0  0  0  0  0
   16.1700   11.0470   22.7990 C   0  0  0  0  0  3  0  0  0  0  0  0
   17.8920   10.6980   21.1120 C   0  0  0  0  0  0  0  0  0  0  0  0
   17.1000   11.6750   23.6260 C   0  0  0  0  0  3  0  0  0  0  0  0
   18.8260   11.3370   21.9590 C   0  0  0  0  0  0  0  0  0  0  0  0
   18.3320   10.2880   19.7220 C   0  0  0  0  0  2  0  0  0  0  0  0
   18.4220   11.8230   23.2090 C   0  0  0  0  0  3  0  0  0  0  0  0
   20.1940   11.4720   21.5470 N   0  0  0  0  0  0  0  0  0  0  0  0
   19.7820    9.7890   19.7030 C   0  0  0  0  0  2  0  0  0  0  0  0
   20.6790   10.7610   20.4050 C   0  0  0  0  0  0  0  0  0  0  0  0
   21.8730   10.9070   20.0300 O   0  0  0  0  0  0  0  0  0  0  0  0
   20.8300   12.0850   22.0770 H   0  0  0  0  0  0  0  0  0  0  0  0
   14.8840   11.8750   19.4030 C   0  0  0  0  0  3  0  0  0  0  0  0
   15.3510   11.6340   18.1780 C   0  0  0  0  0  3  0  0  0  0  0  0
   15.6950   12.7190   17.3020 C   0  0  0  0  0  0  0  0  0  0  0  0
   15.9690   13.6330   16.5650 C   0  0  0  0  0  0  0  0  0  0  0  0
   16.3020   14.7580   15.6730 C   0  0  2  0  0  0  0  0  0  0  0  0
   15.3820   14.7100   14.4420 C   0  0  0  0  0  1  0  0  0  0  0  0
   17.7700   14.6350   15.2350 C   0  0  0  0  0  1  0  0  0  0  0  0
   16.0900   16.0770   16.4340 C   0  0  0  0  0  1  0  0  0  0  0  0
  1  2  1  0
  2  6  1  0
  3  2  1  0
  3  4  1  0
  5  3  1  0
  6  7  1  0
  7  9  2  0
  8  6  2  0
  8 10  1  0
 10 12  2  0
 11  8  1  0
 12  9  1  0
 13 10  1  0
 13 17  1  0
 14 11  1  0
 14 15  1  0
 15 13  1  0
 16 15  2  0
 18  1  1  0
 19 18  2  0
 20 19  1  0
 21 20  3  0
 22 25  1  1
 22 21  1  0
 23 22  1  0
 24 22  1  0
M  RAD  8   1   3   3   2   4   2   5   2   7   2   9   2  11   3  12   2
M  RAD  6  14   3  18   2  19   2  23   2  24   2  25   2
M  END
>  <vina_score>  (1) 
-7.2919999999999998

>  <pose_id>  (1) 
1

$$$$

     RDKit          3D

 25 26  0  0  0  0  0  0  0  0999 V2000
   18.2090    9.5510   17.3720 C   0  0  0  0  0  2  0  0  0  0  0  0
   18.5380    9.4450   18.8020 N   0  0  0  0  0  0  0  0  0  0  0  0
   19.9130    9.0630   19.2050 C   0  0  0  0  0  3  0  0  0  0  0  0
   20.4260    7.8830   18.3630 C   0  0  0  0  0  1  0  0  0  0  0  0
   20.9150   10.2290   19.1050 C   0  0  0  0  0  1  0  0  0  0  0  0
   17.4280    9.3330   19.7170 C   0  0  0  0  0  0  0  0  0  0  0  0
   16.4610    8.3430   19.4890 C   0  0  0  0  0  3  0  0  0  0  0  0
   17.2970   10.1970   20.8290 C   0  0  0  0  0  0  0  0  0  0  0  0
   15.3650    8.2140   20.3430 C   0  0  0  0  0  3  0  0  0  0  0  0
   16.1820   10.0570   21.6870 C   0  0  0  0  0  0  0  0  0  0  0  0
   18.2530   11.3490   21.0610 C   0  0  0  0  0  2  0  0  0  0  0  0
   15.2230    9.0680   21.4350 C   0  0  0  0  0  3  0  0  0  0  0  0
   16.0400   10.9160   22.8270 N   0  0  0  0  0  0  0  0  0  0  0  0
   18.4510   11.6390   22.5530 C   0  0  0  0  0  2  0  0  0  0  0  0
   17.1270   11.7480   23.2450 C   0  0  0  0  0  0  0  0  0  0  0  0
   16.9870   12.5230   24.2280 O   0  0  0  0  0  0  0  0  0  0  0  0
   15.1520   10.9350   23.3470 H   0  0  0  0  0  0  0  0  0  0  0  0
   17.4550   10.8190   17.1110 C   0  0  0  0  0  3  0  0  0  0  0  0
   18.0790   11.9910   17.0010 C   0  0  0  0  0  3  0  0  0  0  0  0
   17.3500   13.1760   16.6460 C   0  0  0  0  0  0  0  0  0  0  0  0
   16.7370   14.1660   16.3320 C   0  0  0  0  0  0  0  0  0  0  0  0
   15.9980   15.3820   15.9470 C   0  0  2  0  0  0  0  0  0  0  0  0
   15.0500   15.7760   17.0910 C   0  0  0  0  0  1  0  0  0  0  0  0
   15.1890   15.0940   14.6710 C   0  0  0  0  0  1  0  0  0  0  0  0
   17.0040   16.5140   15.6860 C   0  0  0  0  0  1  0  0  0  0  0  0
  1  2  1  0
  2  3  1  0
  2  6  1  0
  4  3  1  0
  5  3  1  0
  6  8  2  0
  7  6  1  0
  7  9  2  0
  8 11  1  0
  8 10  1  0
  9 12  1  0
 10 13  1  0
 11 14  1  0
 12 10  2  0
 13 15  1  0
 13 17  1  0
 14 15  1  0
 15 16  2  0
 18  1  1  0
 19 18  2  0
 20 19  1  0
 21 20  3  0
 22 21  1  0
 22 23  1  1
 24 22  1  0
 25 22  1  0
M  RAD  8   1   3   3   2   4   2   5   2   7   2   9   2  11   3  12   2
M  RAD  6  14   3  18   2  19   2  23   2  24   2  25   2
M  END
>  <vina_score>  (2) 
-7.25

>  <pose_id>  (2) 
2

$$$$

     RDKit          3D

 25 26  0  0  0  0  0  0  0  0999 V2000
   20.3190    9.8510   19.7060 C   0  0  0  0  0  2  0  0  0  0  0  0
   19.0120   10.0230   19.0540 N   0  0  0  0  0  0  0  0  0  0  0  0
   18.9210   10.8200   17.8070 C   0  0  0  0  0  3  0  0  0  0  0  0
   18.5550    9.9280   16.6090 C   0  0  0  0  0  1  0  0  0  0  0  0
   17.9090   11.9770   17.9050 C   0  0  0  0  0  1  0  0  0  0  0  0
   17.8450    9.7480   19.8560 C   0  0  0  0  0  0  0  0  0  0  0  0
   16.9720    8.7250   19.4540 C   0  0  0  0  0  3  0  0  0  0  0  0
   17.5640   10.4860   21.0300 C   0  0  0  0  0  0  0  0  0  0  0  0
   15.8250    8.4410   20.1950 C   0  0  0  0  0  3  0  0  0  0  0  0
   16.3980   10.1890   21.7720 C   0  0  0  0  0  0  0  0  0  0  0  0
   18.4130   11.6680   21.4510 C   0  0  0  0  0  2  0  0  0  0  0  0
   15.5360    9.1710   21.3470 C   0  0  0  0  0  3  0  0  0  0  0  0
   16.1060   10.9180   22.9730 N   0  0  0  0  0  0  0  0  0  0  0  0
   18.4720   11.8180   22.9750 C   0  0  0  0  0  2  0  0  0  0  0  0
   17.0930   11.7720   23.5590 C   0  0  0  0  0  0  0  0  0  0  0  0
   16.8210   12.4330   24.5960 O   0  0  0  0  0  0  0  0  0  0  0  0
   15.1800   10.8270   23.4150 H   0  0  0  0  0  0  0  0  0  0  0  0
   21.4040   10.4030   18.8330 C   0  0  0  0  0  3  0  0  0  0  0  0
   22.3330    9.6130   18.2930 C   0  0  0  0  0  3  0  0  0  0  0  0
   23.2990   10.1460   17.3750 C   0  0  0  0  0  0  0  0  0  0  0  0
   24.0990   10.5950   16.5920 C   0  0  0  0  0  0  0  0  0  0  0  0
   25.0730   11.1360   15.6260 C   0  0  2  0  0  0  0  0  0  0  0  0
   26.4910   10.9630   16.1940 C   0  0  0  0  0  1  0  0  0  0  0  0
   24.7770   12.6270   15.3960 C   0  0  0  0  0  1  0  0  0  0  0  0
   24.9420   10.3650   14.3020 C   0  0  0  0  0  1  0  0  0  0  0  0
  2  1  1  0
  2  6  1  0
  3  5  1  0
  3  2  1  0
  4  3  1  0
  6  8  2  0
  7  6  1  0
  7  9  2  0
  8 11  1  0
  8 10  1  0
  9 12  1  0
 10 13  1  0
 11 14  1  0
 12 10  2  0
 13 17  1  0
 13 15  1  0
 14 15  1  0
 15 16  2  0
 18  1  1  0
 19 18  2  0
 20 19  1  0
 21 20  3  0
 22 23  1  1
 22 21  1  0
 24 22  1  0
 25 22  1  0
M  RAD  8   1   3   3   2   4   2   5   2   7   2   9   2  11   3  12   2
M  RAD  6  14   3  18   2  19   2  23   2  24   2  25   2
M  END
>  <vina_score>  (3) 
-7.0419999999999998

>  <pose_id>  (3) 
3

$$$$

     RDKit          3D

 25 26  0  0  0  0  0  0  0  0999 V2000
   18.1680   16.0710   11.9930 C   0  0  0  0  0  2  0  0  0  0  0  0
   16.9480   15.3360   12.3590 N   0  0  0  0  0  0  0  0  0  0  0  0
   15.9590   14.9980   11.3070 C   0  0  0  0  0  3  0  0  0  0  0  0
   14.7500   14.2590   11.9040 C   0  0  0  0  0  1  0  0  0  0  0  0
   15.4640   16.2320   10.5290 C   0  0  0  0  0  1  0  0  0  0  0  0
   16.5910   15.3270   13.7570 C   0  0  0  0  0  0  0  0  0  0  0  0
   16.0230   16.4800   14.3180 C   0  0  0  0  0  3  0  0  0  0  0  0
   16.8030   14.1860   14.5670 C   0  0  0  0  0  0  0  0  0  0  0  0
   15.6790   16.5150   15.6700 C   0  0  0  0  0  3  0  0  0  0  0  0
   16.4520   14.2330   15.9350 C   0  0  0  0  0  0  0  0  0  0  0  0
   17.5090   12.9540   14.0390 C   0  0  0  0  0  2  0  0  0  0  0  0
   15.8950   15.3990   16.4770 C   0  0  0  0  0  3  0  0  0  0  0  0
   16.6470   13.0810   16.7670 N   0  0  0  0  0  0  0  0  0  0  0  0
   16.9880   11.6690   14.6930 C   0  0  0  0  0  2  0  0  0  0  0  0
   16.9660   11.8130   16.1840 C   0  0  0  0  0  0  0  0  0  0  0  0
   17.1670   10.8120   16.9210 O   0  0  0  0  0  0  0  0  0  0  0  0
   16.5580   13.1660   17.7890 H   0  0  0  0  0  0  0  0  0  0  0  0
   19.3420   15.1410   11.9750 C   0  0  0  0  0  3  0  0  0  0  0  0
   20.4810   15.4680   11.3630 C   0  0  0  0  0  3  0  0  0  0  0  0
   21.6280   14.6090   11.4490 C   0  0  0  0  0  0  0  0  0  0  0  0
   22.5940   13.8930   11.5370 C   0  0  0  0  0  0  0  0  0  0  0  0
   23.7770   13.0210   11.6560 C   0  0  2  0  0  0  0  0  0  0  0  0
   24.7230   13.2980   10.4770 C   0  0  0  0  0  1  0  0  0  0  0  0
   23.3230   11.5520   11.6310 C   0  0  0  0  0  1  0  0  0  0  0  0
   24.4900   13.3270   12.9830 C   0  0  0  0  0  1  0  0  0  0  0  0
  1  2  1  0
  2  6  1  0
  3  4  1  0
  3  2  1  0
  5  3  1  0
  6  7  1  0
  6  8  2  0
  7  9  2  0
  8 10  1  0
  9 12  1  0
 10 12  2  0
 10 13  1  0
 11  8  1  0
 11 14  1  0
 13 17  1  0
 14 15  1  0
 15 13  1  0
 15 16  2  0
 18  1  1  0
 19 20  1  0
 19 18  2  0
 20 21  3  0
 21 22  1  0
 22 25  1  1
 23 22  1  0
 24 22  1  0
M  RAD  8   1   3   3   2   4   2   5   2   7   2   9   2  11   3  12   2
M  RAD  6  14   3  18   2  19   2  23   2  24   2  25   2
M  END
>  <vina_score>  (4) 
-6.585

>  <pose_id>  (4) 
4

$$$$

     RDKit          3D

 25 26  0  0  0  0  0  0  0  0999 V2000
   16.8440   12.7910   14.8120 C   0  0  0  0  0  2  0  0  0  0  0  0
   17.1490   14.2200   14.6400 N   0  0  0  0  0  0  0  0  0  0  0  0
   16.5820   15.2040   15.5930 C   0  0  0  0  0  3  0  0  0  0  0  0
   17.3890   16.5130   15.5780 C   0  0  0  0  0  1  0  0  0  0  0  0
   15.0990   15.5200   15.3210 C   0  0  0  0  0  1  0  0  0  0  0  0
   17.6490   14.6260   13.3490 C   0  0  0  0  0  0  0  0  0  0  0  0
   16.7330   15.0030   12.3560 C   0  0  0  0  0  3  0  0  0  0  0  0
   19.0360   14.6500   13.0670 C   0  0  0  0  0  0  0  0  0  0  0  0
   17.1770   15.3860   11.0900 C   0  0  0  0  0  3  0  0  0  0  0  0
   19.4740   15.0390   11.7810 C   0  0  0  0  0  0  0  0  0  0  0  0
   20.0600   14.1530   14.0650 C   0  0  0  0  0  2  0  0  0  0  0  0
   18.5410   15.4010   10.8010 C   0  0  0  0  0  3  0  0  0  0  0  0
   20.8770   15.0820   11.4820 N   0  0  0  0  0  0  0  0  0  0  0  0
   21.3850   14.9170   13.9570 C   0  0  0  0  0  2  0  0  0  0  0  0
   21.8430   14.9700   12.5320 C   0  0  0  0  0  0  0  0  0  0  0  0
   23.0730   14.9780   12.2610 O   0  0  0  0  0  0  0  0  0  0  0  0
   21.1890   15.1930   10.5080 H   0  0  0  0  0  0  0  0  0  0  0  0
   17.2020   12.3540   16.1990 C   0  0  0  0  0  3  0  0  0  0  0  0
   16.2690   12.1700   17.1340 C   0  0  0  0  0  3  0  0  0  0  0  0
   16.6210   11.6490   18.4240 C   0  0  0  0  0  0  0  0  0  0  0  0
   16.9190   11.1960   19.5010 C   0  0  0  0  0  0  0  0  0  0  0  0
   17.2890   10.6530   20.8210 C   0  0  2  0  0  0  0  0  0  0  0  0
   18.0140    9.3120   20.6250 C   0  0  0  0  0  1  0  0  0  0  0  0
   16.0140   10.4430   21.6540 C   0  0  0  0  0  1  0  0  0  0  0  0
   18.2180   11.6530   21.5280 C   0  0  0  0  0  1  0  0  0  0  0  0
  1 18  1  0
  2  1  1  0
  2  3  1  0
  4  3  1  0
  5  3  1  0
  6  2  1  0
  7  6  1  0
  8  6  2  0
  8 11  1  0
  9  7  2  0
 10  8  1  0
 12  9  1  0
 12 10  2  0
 13 10  1  0
 13 15  1  0
 14 11  1  0
 15 14  1  0
 16 15  2  0
 17 13  1  0
 18 19  2  0
 19 20  1  0
 20 21  3  0
 21 22  1  0
 22 25  1  1
 22 24  1  0
 23 22  1  0
M  RAD  8   1   3   3   2   4   2   5   2   7   2   9   2  11   3  12   2
M  RAD  6  14   3  18   2  19   2  23   2  24   2  25   2
M  END
>  <vina_score>  (5) 
-6.4340000000000002

>  <pose_id>  (5) 
5

$$$$
