
     RDKit          3D

 32 33  0  0  1  0  0  0  0  0999 V2000
   19.9600   14.0260   13.1840 C   0  0  0  0  0  3  0  0  0  0  0  0
   21.3440   13.8270   13.8250 C   0  0  0  0  0  2  0  0  0  0  0  0
   22.3990   13.4800   12.7940 C   0  0  0  0  0  0  0  0  0  0  0  0
   22.3480   14.1080   11.5310 C   0  0  0  0  0  0  0  0  0  0  0  0
   23.3680   13.8810   10.5950 C   0  0  0  0  0  3  0  0  0  0  0  0
   24.4310   13.0300   10.9070 C   0  0  0  0  0  3  0  0  0  0  0  0
   24.4870   12.4040   12.1530 C   0  0  0  0  0  3  0  0  0  0  0  0
   23.4810   12.6280   13.1050 C   0  0  0  0  0  0  0  0  0  0  0  0
   21.2390   14.9570   11.1980 N   0  0  0  0  0  0  0  0  0  0  0  0
   20.0690   14.9760   12.0250 C   0  0  0  0  0  0  0  0  0  0  0  0
   19.1070   15.7400   11.7380 O   0  0  0  0  0  0  0  0  0  0  0  0
   21.2850   15.5550   10.3610 H   0  0  0  0  0  0  0  0  0  0  0  0
   19.5000   12.7770   12.7000 O   0  0  0  0  0  0  0  0  0  0  0  0
   18.2400   12.1880   13.6920 P   0  0  1  0  0  0  0  0  0  0  0  0
   17.6080   10.9870   13.0200 O   0  0  0  0  0  0  0  0  0  0  0  0
   18.8760   11.7460   15.2140 O   0  0  0  0  0  0  0  0  0  0  0  0
   18.3770   12.6380   16.1820 C   0  0  0  0  0  2  0  0  0  0  0  0
   17.3910   11.9020   17.0750 C   0  0  0  0  0  1  0  0  0  0  0  0
   17.0640   13.4110   13.8790 O   0  0  0  0  0  0  0  0  0  0  0  0
   15.8200   12.8950   13.4680 C   0  0  0  0  0  2  0  0  0  0  0  0
   15.1230   13.9270   12.5940 C   0  0  0  0  0  1  0  0  0  0  0  0
   23.5590   11.9820   14.3840 N   0  0  0  0  0  0  0  0  0  0  0  0
   24.4760   12.5160   15.3900 C   0  0  0  0  0  1  0  0  0  0  0  0
   22.9690   10.6530   14.5560 C   0  0  0  0  0  2  0  0  0  0  0  0
   22.2410   10.5820   15.8270 C   0  0  0  0  0  0  0  0  0  0  0  0
   21.6450   10.5280   16.8730 C   0  0  0  0  0  0  0  0  0  0  0  0
   20.9460   10.4640   18.0990 C   0  0  0  0  0  0  0  0  0  0  0  0
   20.3500   10.4130   19.1460 C   0  0  0  0  0  0  0  0  0  0  0  0
   19.6190   10.3530   20.4260 C   0  0  1  0  0  0  0  0  0  0  0  0
   20.6270   10.4400   21.5840 C   0  0  0  0  0  1  0  0  0  0  0  0
   18.6360   11.5320   20.4970 C   0  0  0  0  0  1  0  0  0  0  0  0
   18.8480    9.0230   20.5030 C   0  0  0  0  0  1  0  0  0  0  0  0
  1 13  1  0
  1  2  1  0
  3  8  2  0
  3  2  1  0
  4  3  1  0
  5  6  1  0
  5  4  2  0
  6  7  2  0
  7  8  1  0
  8 22  1  0
  9  4  1  0
  9 10  1  0
 10  1  1  0
 11 10  2  0
 12  9  1  0
 14 13  1  6
 14 19  1  0
 14 16  1  0
 15 14  2  0
 16 17  1  0
 17 18  1  0
 20 19  1  0
 21 20  1  0
 22 24  1  0
 22 23  1  0
 24 25  1  0
 25 26  3  0
 26 27  1  0
 27 28  3  0
 28 29  1  0
 29 31  1  6
 29 32  1  0
 29 30  1  0
M  RAD  8   1   2   2   3   5   2   6   2   7   2  17   3  18   2  20   3
M  RAD  6  21   2  23   2  24   3  30   2  31   2  32   2
M  END
>  <vina_score>  (1) 
-6.7919999999999998

>  <pose_id>  (1) 
1

$$$$

     RDKit          3D

 32 33  0  0  1  0  0  0  0  0999 V2000
   19.9980   14.0140   13.2410 C   0  0  0  0  0  3  0  0  0  0  0  0
   21.3940   13.8180   13.8550 C   0  0  0  0  0  2  0  0  0  0  0  0
   22.4290   13.4640   12.8060 C   0  0  0  0  0  0  0  0  0  0  0  0
   22.3540   14.0860   11.5410 C   0  0  0  0  0  0  0  0  0  0  0  0
   23.3550   13.8530   10.5870 C   0  0  0  0  0  3  0  0  0  0  0  0
   24.4240   13.0030   10.8820 C   0  0  0  0  0  3  0  0  0  0  0  0
   24.5040   12.3840   12.1310 C   0  0  0  0  0  3  0  0  0  0  0  0
   23.5160   12.6130   13.1000 C   0  0  0  0  0  0  0  0  0  0  0  0
   21.2390   14.9340   11.2250 N   0  0  0  0  0  0  0  0  0  0  0  0
   20.0850   14.9590   12.0750 C   0  0  0  0  0  0  0  0  0  0  0  0
   19.1180   15.7210   11.8030 O   0  0  0  0  0  0  0  0  0  0  0  0
   21.2690   15.5280   10.3850 H   0  0  0  0  0  0  0  0  0  0  0  0
   19.5280   12.7630   12.7710 O   0  0  0  0  0  0  0  0  0  0  0  0
   18.3560   12.1340   13.8430 P   0  0  1  0  0  0  0  0  0  0  0  0
   18.3250   12.9900   15.0910 O   0  0  0  0  0  0  0  0  0  0  0  0
   16.8270   12.1440   13.0810 O   0  0  0  0  0  0  0  0  0  0  0  0
   16.3750   13.4750   13.0070 C   0  0  0  0  0  2  0  0  0  0  0  0
   15.0720   13.6020   13.7820 C   0  0  0  0  0  1  0  0  0  0  0  0
   18.7910   10.5380   14.2660 O   0  0  0  0  0  0  0  0  0  0  0  0
   19.5340    9.9860   13.2050 C   0  0  0  0  0  2  0  0  0  0  0  0
   19.9950    8.5910   13.5990 C   0  0  0  0  0  1  0  0  0  0  0  0
   23.6180   11.9740   14.3810 N   0  0  0  0  0  0  0  0  0  0  0  0
   24.5140   12.5450   15.3850 C   0  0  0  0  0  1  0  0  0  0  0  0
   23.0800   10.6240   14.5560 C   0  0  0  0  0  2  0  0  0  0  0  0
   22.3220   10.5390   15.8090 C   0  0  0  0  0  0  0  0  0  0  0  0
   21.7010   10.4730   16.8390 C   0  0  0  0  0  0  0  0  0  0  0  0
   20.9730   10.3960   18.0470 C   0  0  0  0  0  0  0  0  0  0  0  0
   20.3520   10.3320   19.0790 C   0  0  0  0  0  0  0  0  0  0  0  0
   19.5910   10.2520   20.3410 C   0  0  1  0  0  0  0  0  0  0  0  0
   18.5060   11.3410   20.3420 C   0  0  0  0  0  1  0  0  0  0  0  0
   18.9390    8.8640   20.4440 C   0  0  0  0  0  1  0  0  0  0  0  0
   20.5520   10.4690   21.5230 C   0  0  0  0  0  1  0  0  0  0  0  0
  1 13  1  0
  1  2  1  0
  3  8  2  0
  3  2  1  0
  4  3  1  0
  5  6  1  0
  5  4  2  0
  6  7  2  0
  7  8  1  0
  8 22  1  0
  9  4  1  0
  9 10  1  0
 10  1  1  0
 11 10  2  0
 12  9  1  0
 14 13  1  6
 14 19  1  0
 14 15  2  0
 16 14  1  0
 17 16  1  0
 17 18  1  0
 20 21  1  0
 20 19  1  0
 22 24  1  0
 22 23  1  0
 24 25  1  0
 25 26  3  0
 26 27  1  0
 27 28  3  0
 28 29  1  0
 29 30  1  6
 29 31  1  0
 29 32  1  0
M  RAD  8   1   2   2   3   5   2   6   2   7   2  17   3  18   2  20   3
M  RAD  6  21   2  23   2  24   3  30   2  31   2  32   2
M  END
>  <vina_score>  (2) 
-6.6230000000000002

>  <pose_id>  (2) 
2

$$$$

     RDKit          3D

 32 33  0  0  1  0  0  0  0  0999 V2000
   23.8020   11.4460   12.7210 C   0  0  0  0  0  3  0  0  0  0  0  0
   22.4210   12.1060   12.5710 C   0  0  0  0  0  2  0  0  0  0  0  0
   22.4950   13.3950   11.7750 C   0  0  0  0  0  0  0  0  0  0  0  0
   23.3750   13.4650   10.6740 C   0  0  0  0  0  0  0  0  0  0  0  0
   23.3900   14.6070    9.8620 C   0  0  0  0  0  3  0  0  0  0  0  0
   22.5400   15.6790   10.1410 C   0  0  0  0  0  3  0  0  0  0  0  0
   21.6670   15.6190   11.2290 C   0  0  0  0  0  3  0  0  0  0  0  0
   21.6320   14.4790   12.0460 C   0  0  0  0  0  0  0  0  0  0  0  0
   24.2720   12.3760   10.4060 N   0  0  0  0  0  0  0  0  0  0  0  0
   24.4620   11.3380   11.3760 C   0  0  0  0  0  0  0  0  0  0  0  0
   25.2360   10.3740   11.1240 O   0  0  0  0  0  0  0  0  0  0  0  0
   24.7810   12.3410    9.5110 H   0  0  0  0  0  0  0  0  0  0  0  0
   24.6070   12.2620   13.5530 O   0  0  0  0  0  0  0  0  0  0  0  0
   24.9160   11.4700   15.0350 P   0  0  1  0  0  0  0  0  0  0  0  0
   26.1700   12.0520   15.6500 O   0  0  0  0  0  0  0  0  0  0  0  0
   23.5860   11.6900   16.0840 O   0  0  0  0  0  0  0  0  0  0  0  0
   22.8300   10.5030   16.1010 C   0  0  0  0  0  2  0  0  0  0  0  0
   22.2180   10.3220   17.4810 C   0  0  0  0  0  1  0  0  0  0  0  0
   25.1570    9.8070   14.7340 O   0  0  0  0  0  0  0  0  0  0  0  0
   26.3380    9.4060   15.3870 C   0  0  0  0  0  2  0  0  0  0  0  0
   25.9850    8.4050   16.4760 C   0  0  0  0  0  1  0  0  0  0  0  0
   20.7230   14.4300   13.1560 N   0  0  0  0  0  0  0  0  0  0  0  0
   21.1100   15.0660   14.4140 C   0  0  0  0  0  1  0  0  0  0  0  0
   19.5900   13.5040   13.1160 C   0  0  0  0  0  2  0  0  0  0  0  0
   19.3120   12.9840   14.4590 C   0  0  0  0  0  0  0  0  0  0  0  0
   19.0890   12.5590   15.5640 C   0  0  0  0  0  0  0  0  0  0  0  0
   18.8260   12.0610   16.8590 C   0  0  0  0  0  0  0  0  0  0  0  0
   18.6040   11.6350   17.9660 C   0  0  0  0  0  0  0  0  0  0  0  0
   18.3300   11.1160   19.3200 C   0  0  1  0  0  0  0  0  0  0  0  0
   19.1290   11.9380   20.3440 C   0  0  0  0  0  1  0  0  0  0  0  0
   16.8260   11.2400   19.6080 C   0  0  0  0  0  1  0  0  0  0  0  0
   18.7560    9.6390   19.3880 C   0  0  0  0  0  1  0  0  0  0  0  0
  1 13  1  0
  2  1  1  0
  3  8  2  0
  3  2  1  0
  4  3  1  0
  5  6  1  0
  5  4  2  0
  6  7  2  0
  7  8  1  0
  8 22  1  0
  9  4  1  0
  9 10  1  0
 10  1  1  0
 11 10  2  0
 12  9  1  0
 14 13  1  6
 14 15  2  0
 14 16  1  0
 16 17  1  0
 17 18  1  0
 19 14  1  0
 19 20  1  0
 20 21  1  0
 22 23  1  0
 24 22  1  0
 24 25  1  0
 25 26  3  0
 26 27  1  0
 27 28  3  0
 28 29  1  0
 29 32  1  6
 29 31  1  0
 29 30  1  0
M  RAD  8   1   2   2   3   5   2   6   2   7   2  17   3  18   2  20   3
M  RAD  6  21   2  23   2  24   3  30   2  31   2  32   2
M  END
>  <vina_score>  (3) 
-6.5430000000000001

>  <pose_id>  (3) 
3

$$$$

     RDKit          3D

 32 33  0  0  1  0  0  0  0  0999 V2000
   18.0410   13.6590   13.7330 C   0  0  0  0  0  3  0  0  0  0  0  0
   19.2970   14.5070   13.4700 C   0  0  0  0  0  2  0  0  0  0  0  0
   19.3670   14.9800   12.0310 C   0  0  0  0  0  0  0  0  0  0  0  0
   18.1740   15.3620   11.3820 C   0  0  0  0  0  0  0  0  0  0  0  0
   18.2220   15.8980   10.0870 C   0  0  0  0  0  3  0  0  0  0  0  0
   19.4470   16.0500    9.4350 C   0  0  0  0  0  3  0  0  0  0  0  0
   20.6320   15.6720   10.0690 C   0  0  0  0  0  3  0  0  0  0  0  0
   20.6030   15.1440   11.3680 C   0  0  0  0  0  0  0  0  0  0  0  0
   16.9100   15.1770   12.0410 N   0  0  0  0  0  0  0  0  0  0  0  0
   16.8240   14.3850   13.2320 C   0  0  0  0  0  0  0  0  0  0  0  0
   15.7160   14.2440   13.8160 O   0  0  0  0  0  0  0  0  0  0  0  0
   16.0630   15.6160   11.6540 H   0  0  0  0  0  0  0  0  0  0  0  0
   18.1600   12.4380   13.0250 O   0  0  0  0  0  0  0  0  0  0  0  0
   18.0010   11.1180   14.0980 P   0  0  1  0  0  0  0  0  0  0  0  0
   16.5760   11.0690   14.6070 O   0  0  0  0  0  0  0  0  0  0  0  0
   18.3840    9.6700   13.2760 O   0  0  0  0  0  0  0  0  0  0  0  0
   19.7620    9.4240   13.4250 C   0  0  0  0  0  2  0  0  0  0  0  0
   19.9900    7.9260   13.5410 C   0  0  0  0  0  1  0  0  0  0  0  0
   19.0620   11.3440   15.4160 O   0  0  0  0  0  0  0  0  0  0  0  0
   18.3930   10.9600   16.5940 C   0  0  0  0  0  2  0  0  0  0  0  0
   18.7680   11.9230   17.7100 C   0  0  0  0  0  1  0  0  0  0  0  0
   21.8310   14.7680   12.0090 N   0  0  0  0  0  0  0  0  0  0  0  0
   22.6200   15.7990   12.6820 C   0  0  0  0  0  1  0  0  0  0  0  0
   22.4190   13.4580   11.7240 C   0  0  0  0  0  2  0  0  0  0  0  0
   22.4120   12.6260   12.9310 C   0  0  0  0  0  0  0  0  0  0  0  0
   22.4050   11.9460   13.9260 C   0  0  0  0  0  0  0  0  0  0  0  0
   22.3950   11.1490   15.0920 C   0  0  0  0  0  0  0  0  0  0  0  0
   22.3880   10.4680   16.0880 C   0  0  0  0  0  0  0  0  0  0  0  0
   22.3810    9.6360   17.3070 C   0  0  1  0  0  0  0  0  0  0  0  0
   23.7360    8.9210   17.4340 C   0  0  0  0  0  1  0  0  0  0  0  0
   22.1500   10.5410   18.5280 C   0  0  0  0  0  1  0  0  0  0  0  0
   21.2490    8.5990   17.2010 C   0  0  0  0  0  1  0  0  0  0  0  0
  1 13  1  0
  2  1  1  0
  3  2  1  0
  4  3  1  0
  4  9  1  0
  5  4  2  0
  6  7  2  0
  6  5  1  0
  7  8  1  0
  8 22  1  0
  8  3  2  0
  9 10  1  0
 10  1  1  0
 10 11  2  0
 12  9  1  0
 14 13  1  6
 14 15  2  0
 14 19  1  0
 16 17  1  0
 16 14  1  0
 17 18  1  0
 19 20  1  0
 20 21  1  0
 22 23  1  0
 24 22  1  0
 24 25  1  0
 25 26  3  0
 26 27  1  0
 27 28  3  0
 28 29  1  0
 29 30  1  1
 29 31  1  0
 32 29  1  0
M  RAD  8   1   2   2   3   5   2   6   2   7   2  17   3  18   2  20   3
M  RAD  6  21   2  23   2  24   3  30   2  31   2  32   2
M  END
>  <vina_score>  (4) 
-6.4870000000000001

>  <pose_id>  (4) 
4

$$$$

     RDKit          3D

 32 33  0  0  1  0  0  0  0  0999 V2000
   18.8340   13.4730   13.5610 C   0  0  0  0  0  3  0  0  0  0  0  0
   19.9390   14.4780   13.1940 C   0  0  0  0  0  2  0  0  0  0  0  0
   19.7470   15.0460   11.8020 C   0  0  0  0  0  0  0  0  0  0  0  0
   18.4370   15.3260   11.3570 C   0  0  0  0  0  0  0  0  0  0  0  0
   18.2380   15.9450   10.1150 C   0  0  0  0  0  3  0  0  0  0  0  0
   19.3310   16.2810    9.3130 C   0  0  0  0  0  3  0  0  0  0  0  0
   20.6300   16.0060    9.7460 C   0  0  0  0  0  3  0  0  0  0  0  0
   20.8480   15.3960   10.9900 C   0  0  0  0  0  0  0  0  0  0  0  0
   17.3110   14.9520   12.1660 N   0  0  0  0  0  0  0  0  0  0  0  0
   17.4860   14.0810   13.2910 C   0  0  0  0  0  0  0  0  0  0  0  0
   16.4960   13.7740   14.0100 O   0  0  0  0  0  0  0  0  0  0  0  0
   16.3740   15.3110   11.9370 H   0  0  0  0  0  0  0  0  0  0  0  0
   18.9780   12.3220   12.7480 O   0  0  0  0  0  0  0  0  0  0  0  0
   19.1350   10.9290   13.7230 P   0  0  1  0  0  0  0  0  0  0  0  0
   19.6510   11.3400   15.0860 O   0  0  0  0  0  0  0  0  0  0  0  0
   17.6130   10.1670   13.8730 O   0  0  0  0  0  0  0  0  0  0  0  0
   17.3690    9.4240   12.7030 C   0  0  0  0  0  2  0  0  0  0  0  0
   16.9270    8.0210   13.0870 C   0  0  0  0  0  1  0  0  0  0  0  0
   20.2540    9.8650   12.9950 O   0  0  0  0  0  0  0  0  0  0  0  0
   20.7450    8.9930   13.9860 C   0  0  0  0  0  2  0  0  0  0  0  0
   22.1230    8.5010   13.5710 C   0  0  0  0  0  1  0  0  0  0  0  0
   22.1890   15.1280   11.4230 N   0  0  0  0  0  0  0  0  0  0  0  0
   22.9030   16.1510   12.1860 C   0  0  0  0  0  1  0  0  0  0  0  0
   22.9180   13.9960   10.8480 C   0  0  0  0  0  2  0  0  0  0  0  0
   23.4360   13.1320   11.9140 C   0  0  0  0  0  0  0  0  0  0  0  0
   23.8590   12.4250   12.7930 C   0  0  0  0  0  0  0  0  0  0  0  0
   24.3560   11.5970   13.8240 C   0  0  0  0  0  0  0  0  0  0  0  0
   24.7780   10.8890   14.7050 C   0  0  0  0  0  0  0  0  0  0  0  0
   25.2930   10.0200   15.7800 C   0  0  1  0  0  0  0  0  0  0  0  0
   24.1980    9.8320   16.8420 C   0  0  0  0  0  1  0  0  0  0  0  0
   25.6820    8.6590   15.1810 C   0  0  0  0  0  1  0  0  0  0  0  0
   26.5280   10.6840   16.4150 C   0  0  0  0  0  1  0  0  0  0  0  0
  1 13  1  0
  2  1  1  0
  3  2  1  0
  4  3  1  0
  4  9  1  0
  5  4  2  0
  6  7  2  0
  6  5  1  0
  7  8  1  0
  8 22  1  0
  8  3  2  0
  9 10  1  0
 10  1  1  0
 10 11  2  0
 12  9  1  0
 14 13  1  6
 14 16  1  0
 14 15  2  0
 17 18  1  0
 17 16  1  0
 19 14  1  0
 19 20  1  0
 21 20  1  0
 22 23  1  0
 24 22  1  0
 24 25  1  0
 25 26  3  0
 26 27  1  0
 27 28  3  0
 28 29  1  0
 29 32  1  1
 29 30  1  0
 31 29  1  0
M  RAD  8   1   2   2   3   5   2   6   2   7   2  17   3  18   2  20   3
M  RAD  6  21   2  23   2  24   3  30   2  31   2  32   2
M  END
>  <vina_score>  (5) 
-6.4710000000000001

>  <pose_id>  (5) 
5

$$$$
