
     RDKit          3D

 23 24  0  0  0  0  0  0  0  0999 V2000
   14.5570   10.4300   20.0560 C   0  0  0  0  0  2  0  0  0  0  0  0
   14.9760   11.4050   19.0450 C   0  0  0  0  0  0  0  0  0  0  0  0
   15.7270    9.7170   20.5750 N   0  0  0  0  0  0  0  0  0  0  0  0
   16.1070    8.4280   19.9970 C   0  0  0  0  0  1  0  0  0  0  0  0
   16.6510   10.3970   21.4390 C   0  0  0  0  0  0  0  0  0  0  0  0
   16.1950   10.9100   22.6610 C   0  0  0  0  0  3  0  0  0  0  0  0
   18.0080   10.5560   21.0740 C   0  0  0  0  0  0  0  0  0  0  0  0
   17.0730   11.5610   23.5280 C   0  0  0  0  0  3  0  0  0  0  0  0
   18.8910   11.2100   21.9630 C   0  0  0  0  0  0  0  0  0  0  0  0
   18.5690    9.9160   19.8200 C   0  0  0  0  0  2  0  0  0  0  0  0
   18.4170   11.7070   23.1830 C   0  0  0  0  0  3  0  0  0  0  0  0
   20.2730   11.3710   21.6130 N   0  0  0  0  0  0  0  0  0  0  0  0
   19.7260   10.7300   19.2260 C   0  0  0  0  0  2  0  0  0  0  0  0
   20.7240   11.0810   20.2880 C   0  0  0  0  0  0  0  0  0  0  0  0
   21.9460   11.1830   20.0000 O   0  0  0  0  0  0  0  0  0  0  0  0
   20.9460   11.6980   22.3220 H   0  0  0  0  0  0  0  0  0  0  0  0
   15.3340   12.2020   18.2140 C   0  0  0  0  0  0  0  0  0  0  0  0
   15.7380   13.1400   17.2420 C   0  0  0  0  0  0  0  0  0  0  0  0
   16.0780   13.9440   16.4100 C   0  0  0  0  0  0  0  0  0  0  0  0
   16.4890   14.9260   15.3900 C   0  0  1  0  0  0  0  0  0  0  0  0
   15.4940   14.8750   14.2180 C   0  0  0  0  0  1  0  0  0  0  0  0
   16.4880   16.3300   16.0170 C   0  0  0  0  0  1  0  0  0  0  0  0
   17.9000   14.5740   14.8950 C   0  0  0  0  0  1  0  0  0  0  0  0
  1  3  1  0
  2  1  1  0
  3  5  1  0
  4  3  1  0
  5  6  1  0
  6  8  2  0
  7  5  2  0
  7  9  1  0
  9 11  2  0
 10  7  1  0
 11  8  1  0
 12  9  1  0
 12 16  1  0
 13 10  1  0
 13 14  1  0
 14 12  1  0
 15 14  2  0
 17  2  3  0
 18 17  1  0
 19 18  3  0
 20 22  1  1
 20 19  1  0
 21 20  1  0
 23 20  1  0
M  RAD  8   1   3   4   2   6   2   8   2  10   3  11   2  13   3  21   2
M  RAD  2  22   2  23   2
M  END
>  <vina_score>  (1) 
-7.4240000000000004

>  <pose_id>  (1) 
1

$$$$

     RDKit          3D

 23 24  0  0  0  0  0  0  0  0999 V2000
   19.6920   10.6880   18.8450 C   0  0  0  0  0  2  0  0  0  0  0  0
   18.9020   11.5560   17.9680 C   0  0  0  0  0  0  0  0  0  0  0  0
   18.9150    9.4980   19.2020 N   0  0  0  0  0  0  0  0  0  0  0  0
   19.5520    8.1820   19.1860 C   0  0  0  0  0  1  0  0  0  0  0  0
   17.6310    9.6480   19.8290 C   0  0  0  0  0  0  0  0  0  0  0  0
   16.4900    9.1580   19.1790 C   0  0  0  0  0  3  0  0  0  0  0  0
   17.5040   10.2820   21.0870 C   0  0  0  0  0  0  0  0  0  0  0  0
   15.2320    9.2750   19.7720 C   0  0  0  0  0  3  0  0  0  0  0  0
   16.2270   10.3880   21.6830 C   0  0  0  0  0  0  0  0  0  0  0  0
   18.7220   10.7200   21.8770 C   0  0  0  0  0  2  0  0  0  0  0  0
   15.1010    9.8830   21.0210 C   0  0  0  0  0  3  0  0  0  0  0  0
   16.0820   11.0180   22.9630 N   0  0  0  0  0  0  0  0  0  0  0  0
   18.4290   11.9440   22.7540 C   0  0  0  0  0  2  0  0  0  0  0  0
   17.1720   11.7390   23.5440 C   0  0  0  0  0  0  0  0  0  0  0  0
   17.0510   12.2530   24.6880 O   0  0  0  0  0  0  0  0  0  0  0  0
   15.1870   10.9520   23.4680 H   0  0  0  0  0  0  0  0  0  0  0  0
   18.2400   12.2620   17.2500 C   0  0  0  0  0  0  0  0  0  0  0  0
   17.4780   13.0890   16.4000 C   0  0  0  0  0  0  0  0  0  0  0  0
   16.8300   13.7980   15.6690 C   0  0  0  0  0  0  0  0  0  0  0  0
   16.0450   14.6670   14.7740 C   0  0  1  0  0  0  0  0  0  0  0  0
   17.0080   15.5370   13.9490 C   0  0  0  0  0  1  0  0  0  0  0  0
   15.2010   13.7880   13.8370 C   0  0  0  0  0  1  0  0  0  0  0  0
   15.1260   15.5610   15.6220 C   0  0  0  0  0  1  0  0  0  0  0  0
  1  3  1  0
  2  1  1  0
  3  5  1  0
  4  3  1  0
  5  7  2  0
  6  8  2  0
  6  5  1  0
  7  9  1  0
  7 10  1  0
  8 11  1  0
  9 12  1  0
 10 13  1  0
 11  9  2  0
 12 16  1  0
 12 14  1  0
 13 14  1  0
 14 15  2  0
 17  2  3  0
 18 17  1  0
 19 18  3  0
 20 23  1  1
 20 19  1  0
 21 20  1  0
 22 20  1  0
M  RAD  8   1   3   4   2   6   2   8   2  10   3  11   2  13   3  21   2
M  RAD  2  22   2  23   2
M  END
>  <vina_score>  (2) 
-7.3840000000000003

>  <pose_id>  (2) 
2

$$$$

     RDKit          3D

 23 24  0  0  0  0  0  0  0  0999 V2000
   19.9650    9.9900   17.3600 C   0  0  0  0  0  2  0  0  0  0  0  0
   19.0850   11.1200   17.0480 C   0  0  0  0  0  0  0  0  0  0  0  0
   19.3980    9.2050   18.4580 N   0  0  0  0  0  0  0  0  0  0  0  0
   19.2720    7.7540   18.3250 C   0  0  0  0  0  1  0  0  0  0  0  0
   19.2300    9.8070   19.7520 C   0  0  0  0  0  0  0  0  0  0  0  0
   20.3650   10.1380   20.5050 C   0  0  0  0  0  3  0  0  0  0  0  0
   17.9420   10.0670   20.2740 C   0  0  0  0  0  0  0  0  0  0  0  0
   20.2330   10.7390   21.7580 C   0  0  0  0  0  3  0  0  0  0  0  0
   17.8190   10.6840   21.5390 C   0  0  0  0  0  0  0  0  0  0  0  0
   16.6920    9.8350   19.4460 C   0  0  0  0  0  2  0  0  0  0  0  0
   18.9660   11.0150   22.2720 C   0  0  0  0  0  3  0  0  0  0  0  0
   16.5200   10.9650   22.0790 N   0  0  0  0  0  0  0  0  0  0  0  0
   15.4840    9.4690   20.3170 C   0  0  0  0  0  2  0  0  0  0  0  0
   15.3470   10.4310   21.4590 C   0  0  0  0  0  0  0  0  0  0  0  0
   14.2070   10.7180   21.9120 O   0  0  0  0  0  0  0  0  0  0  0  0
   16.4300   11.5550   22.9180 H   0  0  0  0  0  0  0  0  0  0  0  0
   18.3540   12.0460   16.8040 C   0  0  0  0  0  0  0  0  0  0  0  0
   17.5100   13.1400   16.5220 C   0  0  0  0  0  0  0  0  0  0  0  0
   16.7920   14.0790   16.2840 C   0  0  0  0  0  0  0  0  0  0  0  0
   15.9190   15.2310   15.9930 C   0  0  1  0  0  0  0  0  0  0  0  0
   16.7850   16.4950   15.8590 C   0  0  0  0  0  1  0  0  0  0  0  0
   15.1680   14.9700   14.6770 C   0  0  0  0  0  1  0  0  0  0  0  0
   14.9150   15.4040   17.1440 C   0  0  0  0  0  1  0  0  0  0  0  0
  1  3  1  0
  2  1  1  0
  3  5  1  0
  4  3  1  0
  5  7  2  0
  5  6  1  0
  6  8  2  0
  7  9  1  0
  8 11  1  0
  9 12  1  0
  9 11  2  0
 10  7  1  0
 10 13  1  0
 12 16  1  0
 13 14  1  0
 14 15  2  0
 14 12  1  0
 17  2  3  0
 18 17  1  0
 19 18  3  0
 20 19  1  0
 20 23  1  1
 21 20  1  0
 22 20  1  0
M  RAD  8   1   3   4   2   6   2   8   2  10   3  11   2  13   3  21   2
M  RAD  2  22   2  23   2
M  END
>  <vina_score>  (3) 
-7.2009999999999996

>  <pose_id>  (3) 
3

$$$$

     RDKit          3D

 23 24  0  0  0  0  0  0  0  0999 V2000
   15.8560   14.4190   15.0230 C   0  0  0  0  0  2  0  0  0  0  0  0
   15.9760   13.5560   16.2020 C   0  0  0  0  0  0  0  0  0  0  0  0
   16.3700   13.7220   13.8410 N   0  0  0  0  0  0  0  0  0  0  0  0
   16.2260   12.2710   13.7340 C   0  0  0  0  0  1  0  0  0  0  0  0
   16.7520   14.4770   12.6800 C   0  0  0  0  0  0  0  0  0  0  0  0
   15.7560   14.9750   11.8290 C   0  0  0  0  0  3  0  0  0  0  0  0
   18.1130   14.7210   12.3840 C   0  0  0  0  0  0  0  0  0  0  0  0
   16.0960   15.7260   10.7030 C   0  0  0  0  0  3  0  0  0  0  0  0
   18.4480   15.4880   11.2460 C   0  0  0  0  0  0  0  0  0  0  0  0
   19.2160   14.3020   13.3370 C   0  0  0  0  0  2  0  0  0  0  0  0
   17.4360   15.9850   10.4140 C   0  0  0  0  0  3  0  0  0  0  0  0
   19.8230   15.7540   10.9370 N   0  0  0  0  0  0  0  0  0  0  0  0
   20.5210   13.9770   12.6010 C   0  0  0  0  0  2  0  0  0  0  0  0
   20.8670   15.0690   11.6340 C   0  0  0  0  0  0  0  0  0  0  0  0
   22.0730   15.3400   11.3880 O   0  0  0  0  0  0  0  0  0  0  0  0
   20.0610   16.4420   10.2090 H   0  0  0  0  0  0  0  0  0  0  0  0
   16.0830   12.8380   17.1630 C   0  0  0  0  0  0  0  0  0  0  0  0
   16.2190   12.0070   18.2940 C   0  0  0  0  0  0  0  0  0  0  0  0
   16.3400   11.2990   19.2630 C   0  0  0  0  0  0  0  0  0  0  0  0
   16.4830   10.4350   20.4500 C   0  0  1  0  0  0  0  0  0  0  0  0
   15.2000   10.5270   21.2920 C   0  0  0  0  0  1  0  0  0  0  0  0
   16.7030    8.9850   19.9900 C   0  0  0  0  0  1  0  0  0  0  0  0
   17.6880   10.9120   21.2750 C   0  0  0  0  0  1  0  0  0  0  0  0
  1  2  1  0
  2 17  3  0
  3  1  1  0
  4  3  1  0
  5  3  1  0
  6  5  1  0
  7  5  2  0
  7 10  1  0
  8  6  2  0
  9  7  1  0
 11  8  1  0
 11  9  2  0
 12  9  1  0
 12 14  1  0
 13 10  1  0
 14 13  1  0
 15 14  2  0
 16 12  1  0
 17 18  1  0
 18 19  3  0
 19 20  1  0
 20 23  1  1
 20 21  1  0
 22 20  1  0
M  RAD  8   1   3   4   2   6   2   8   2  10   3  11   2  13   3  21   2
M  RAD  2  22   2  23   2
M  END
>  <vina_score>  (4) 
-7.117

>  <pose_id>  (4) 
4

$$$$

     RDKit          3D

 23 24  0  0  0  0  0  0  0  0999 V2000
   19.6570    8.5500   19.0450 C   0  0  0  0  0  2  0  0  0  0  0  0
   20.7900    9.0980   18.2950 C   0  0  0  0  0  0  0  0  0  0  0  0
   18.4640    9.3670   18.8160 N   0  0  0  0  0  0  0  0  0  0  0  0
   18.2690   10.0210   17.5220 C   0  0  0  0  0  1  0  0  0  0  0  0
   17.3660    9.3010   19.7400 C   0  0  0  0  0  0  0  0  0  0  0  0
   16.2760    8.4690   19.4490 C   0  0  0  0  0  3  0  0  0  0  0  0
   17.3700   10.0610   20.9330 C   0  0  0  0  0  0  0  0  0  0  0  0
   15.2030    8.3710   20.3360 C   0  0  0  0  0  3  0  0  0  0  0  0
   16.2830    9.9490   21.8280 C   0  0  0  0  0  0  0  0  0  0  0  0
   18.5770   10.8810   21.3430 C   0  0  0  0  0  2  0  0  0  0  0  0
   15.2070    9.1050   21.5230 C   0  0  0  0  0  3  0  0  0  0  0  0
   16.2750   10.7040   23.0470 N   0  0  0  0  0  0  0  0  0  0  0  0
   18.1830   12.1150   22.1640 C   0  0  0  0  0  2  0  0  0  0  0  0
   17.2400   11.7360   23.2660 C   0  0  0  0  0  0  0  0  0  0  0  0
   17.2550   12.3660   24.3570 O   0  0  0  0  0  0  0  0  0  0  0  0
   15.5690   10.5030   23.7710 H   0  0  0  0  0  0  0  0  0  0  0  0
   21.7140    9.5620   17.6740 C   0  0  0  0  0  0  0  0  0  0  0  0
   22.7840   10.1070   16.9370 C   0  0  0  0  0  0  0  0  0  0  0  0
   23.6960   10.5750   16.3010 C   0  0  0  0  0  0  0  0  0  0  0  0
   24.8090   11.1510   15.5240 C   0  0  1  0  0  0  0  0  0  0  0  0
   24.4790   12.6150   15.1890 C   0  0  0  0  0  1  0  0  0  0  0  0
   26.0950   11.0830   16.3640 C   0  0  0  0  0  1  0  0  0  0  0  0
   24.9860   10.3450   14.2280 C   0  0  0  0  0  1  0  0  0  0  0  0
  2  1  1  0
  3  1  1  0
  3  5  1  0
  4  3  1  0
  5  7  2  0
  6  5  1  0
  6  8  2  0
  7 10  1  0
  7  9  1  0
  8 11  1  0
  9 12  1  0
 10 13  1  0
 11  9  2  0
 12 14  1  0
 12 16  1  0
 13 14  1  0
 14 15  2  0
 17  2  3  0
 18 17  1  0
 19 18  3  0
 20 19  1  0
 20 22  1  1
 21 20  1  0
 23 20  1  0
M  RAD  8   1   3   4   2   6   2   8   2  10   3  11   2  13   3  21   2
M  RAD  2  22   2  23   2
M  END
>  <vina_score>  (5) 
-7.0960000000000001

>  <pose_id>  (5) 
5

$$$$
