
     RDKit          3D

 26 27  0  0  0  0  0  0  0  0999 V2000
   14.5880   11.4540   19.8200 C   0  0  0  0  0  2  0  0  0  0  0  0
   14.9870   11.5910   18.3820 C   0  0  0  0  0  3  0  0  0  0  0  0
   15.7820   12.8690   16.5050 C   0  0  0  0  0  0  0  0  0  0  0  0
   15.3730   12.7630   17.8790 C   0  0  0  0  0  3  0  0  0  0  0  0
   16.1290   12.9570   15.3540 C   0  0  0  0  0  0  0  0  0  0  0  0
   16.5540   13.0610   13.9460 C   0  0  1  0  0  0  0  0  0  0  0  0
   17.8340   13.9080   13.8690 C   0  0  0  0  0  1  0  0  0  0  0  0
   16.8260   11.6500   13.3990 C   0  0  0  0  0  1  0  0  0  0  0  0
   15.4340   13.7310   13.1320 C   0  0  0  0  0  1  0  0  0  0  0  0
   15.3920   10.4210   20.4770 N   0  0  0  0  0  0  0  0  0  0  0  0
   16.4450   10.8010   21.3720 C   0  0  0  0  0  0  0  0  0  0  0  0
   16.1390   11.0690   22.7130 C   0  0  0  0  0  3  0  0  0  0  0  0
   17.7780   10.9180   20.9200 C   0  0  0  0  0  0  0  0  0  0  0  0
   17.1380   11.4650   23.6010 C   0  0  0  0  0  3  0  0  0  0  0  0
   18.7830   11.3260   21.8260 C   0  0  0  0  0  0  0  0  0  0  0  0
   18.1340   10.7380   19.4580 C   0  0  0  0  0  2  0  0  0  0  0  0
   18.4550   11.5970   23.1610 C   0  0  0  0  0  3  0  0  0  0  0  0
   20.1420   11.4540   21.3830 N   0  0  0  0  0  0  0  0  0  0  0  0
   19.5520   10.1810   19.2740 C   0  0  0  0  0  2  0  0  0  0  0  0
   20.5350   10.9550   20.1010 C   0  0  0  0  0  0  0  0  0  0  0  0
   21.7190   11.1080   19.7000 O   0  0  0  0  0  0  0  0  0  0  0  0
   20.8380   11.9070   21.9910 H   0  0  0  0  0  0  0  0  0  0  0  0
   15.0660    8.7290   20.2340 S   0  0  1  0  0  0  0  0  0  0  0  0
   14.2330    8.5290   19.0000 O   0  0  0  0  0  0  0  0  0  0  0  0
   16.3630    7.9880   20.0710 O   0  0  0  0  0  0  0  0  0  0  0  0
   14.1810    8.0760   21.6320 C   0  0  0  0  0  1  0  0  0  0  0  0
  1 10  1  0
  2  1  1  0
  3  4  1  0
  4  2  2  0
  5  3  3  0
  6  5  1  0
  6  7  1  1
  8  6  1  0
  9  6  1  0
 10 11  1  0
 11 12  2  0
 12 14  1  0
 13 11  1  0
 13 15  2  0
 15 17  1  0
 16 13  1  0
 17 14  2  0
 18 15  1  0
 18 22  1  0
 19 16  1  0
 19 20  1  0
 20 18  1  0
 21 20  2  0
 23 10  1  0
 23 26  1  1
 24 23  2  0
 25 23  2  0
M  RAD  8   1   3   2   2   4   2   7   2   8   2   9   2  12   2  14   2
M  RAD  4  16   3  17   2  19   3  26   2
M  END
>  <vina_score>  (1) 
-7.2679999999999998

>  <pose_id>  (1) 
1

$$$$

     RDKit          3D

 26 27  0  0  0  0  0  0  0  0999 V2000
   19.3090   11.2820   18.6400 C   0  0  0  0  0  2  0  0  0  0  0  0
   18.3320   12.0190   17.7740 C   0  0  0  0  0  3  0  0  0  0  0  0
   17.7380   13.2050   15.7670 C   0  0  0  0  0  0  0  0  0  0  0  0
   18.6960   12.5280   16.5980 C   0  0  0  0  0  3  0  0  0  0  0  0
   16.9340   13.7700   15.0690 C   0  0  0  0  0  0  0  0  0  0  0  0
   15.9490   14.4570   14.2120 C   0  0  1  0  0  0  0  0  0  0  0  0
   16.6950   15.2940   13.1620 C   0  0  0  0  0  1  0  0  0  0  0  0
   15.0700   13.4040   13.5160 C   0  0  0  0  0  1  0  0  0  0  0  0
   15.0760   15.3720   15.0870 C   0  0  0  0  0  1  0  0  0  0  0  0
   18.7640    9.9780   19.0270 N   0  0  0  0  0  0  0  0  0  0  0  0
   17.5370    9.9100   19.7640 C   0  0  0  0  0  0  0  0  0  0  0  0
   16.4670    9.1710   19.2430 C   0  0  0  0  0  3  0  0  0  0  0  0
   17.3900   10.5840   20.9970 C   0  0  0  0  0  0  0  0  0  0  0  0
   15.2520    9.1070   19.9260 C   0  0  0  0  0  3  0  0  0  0  0  0
   16.1540   10.5200   21.6780 C   0  0  0  0  0  0  0  0  0  0  0  0
   18.4850   11.4780   21.5430 C   0  0  0  0  0  2  0  0  0  0  0  0
   15.0940    9.7800   21.1370 C   0  0  0  0  0  3  0  0  0  0  0  0
   15.9860   11.2010   22.9290 N   0  0  0  0  0  0  0  0  0  0  0  0
   18.4950   11.5060   23.0770 C   0  0  0  0  0  2  0  0  0  0  0  0
   17.1160   11.7530   23.6100 C   0  0  0  0  0  0  0  0  0  0  0  0
   16.9570   12.3880   24.6860 O   0  0  0  0  0  0  0  0  0  0  0  0
   15.0460   11.2930   23.3400 H   0  0  0  0  0  0  0  0  0  0  0  0
   19.5510    8.4960   18.5670 S   0  0  1  0  0  0  0  0  0  0  0  0
   19.3930    7.4640   19.6470 O   0  0  0  0  0  0  0  0  0  0  0  0
   18.9330    7.9730   17.3010 O   0  0  0  0  0  0  0  0  0  0  0  0
   21.2860    8.7870   18.3040 C   0  0  0  0  0  1  0  0  0  0  0  0
  1 10  1  0
  2  1  1  0
  3  4  1  0
  4  2  2  0
  5  3  3  0
  6  5  1  0
  6  9  1  1
  7  6  1  0
  8  6  1  0
 10 11  1  0
 11 13  1  0
 12 11  2  0
 12 14  1  0
 13 16  1  0
 13 15  2  0
 14 17  2  0
 15 18  1  0
 16 19  1  0
 17 15  1  0
 18 22  1  0
 18 20  1  0
 19 20  1  0
 20 21  2  0
 23 10  1  0
 23 24  2  0
 25 23  2  0
 23 26  1  6
M  RAD  8   1   3   2   2   4   2   7   2   8   2   9   2  12   2  14   2
M  RAD  4  16   3  17   2  19   3  26   2
M  END
>  <vina_score>  (2) 
-7.0979999999999999

>  <pose_id>  (2) 
2

$$$$

     RDKit          3D

 26 27  0  0  0  0  0  0  0  0999 V2000
   19.9080    9.2150   19.1540 C   0  0  0  0  0  2  0  0  0  0  0  0
   20.9030    9.6060   18.1030 C   0  0  0  0  0  3  0  0  0  0  0  0
   23.0450   10.4530   17.4080 C   0  0  0  0  0  0  0  0  0  0  0  0
   22.0910   10.1140   18.4290 C   0  0  0  0  0  3  0  0  0  0  0  0
   23.8460   10.7340   16.5530 C   0  0  0  0  0  0  0  0  0  0  0  0
   24.8240   11.0810   15.5050 C   0  0  1  0  0  0  0  0  0  0  0  0
   24.6540   10.1170   14.3210 C   0  0  0  0  0  1  0  0  0  0  0  0
   24.5730   12.5270   15.0450 C   0  0  0  0  0  1  0  0  0  0  0  0
   26.2440   10.9550   16.0830 C   0  0  0  0  0  1  0  0  0  0  0  0
   18.5800    9.7340   18.8180 N   0  0  0  0  0  0  0  0  0  0  0  0
   17.4820    9.5140   19.7120 C   0  0  0  0  0  0  0  0  0  0  0  0
   16.5600    8.4990   19.4250 C   0  0  0  0  0  3  0  0  0  0  0  0
   17.3120   10.3100   20.8670 C   0  0  0  0  0  0  0  0  0  0  0  0
   15.4670    8.2770   20.2630 C   0  0  0  0  0  3  0  0  0  0  0  0
   16.1990   10.0830   21.7070 C   0  0  0  0  0  0  0  0  0  0  0  0
   18.2270   11.4830   21.1580 C   0  0  0  0  0  2  0  0  0  0  0  0
   15.2850    9.0670   21.3980 C   0  0  0  0  0  3  0  0  0  0  0  0
   16.0100   10.8840   22.8820 N   0  0  0  0  0  0  0  0  0  0  0  0
   18.3870   11.7300   22.6630 C   0  0  0  0  0  2  0  0  0  0  0  0
   17.0490   11.7540   23.3400 C   0  0  0  0  0  0  0  0  0  0  0  0
   16.8610   12.4860   24.3470 O   0  0  0  0  0  0  0  0  0  0  0  0
   15.1200   10.8330   23.3980 H   0  0  0  0  0  0  0  0  0  0  0  0
   18.3110   10.6630   17.3710 S   0  0  1  0  0  0  0  0  0  0  0  0
   16.8840   11.1300   17.3080 O   0  0  0  0  0  0  0  0  0  0  0  0
   19.2160   11.8630   17.3710 O   0  0  0  0  0  0  0  0  0  0  0  0
   18.6490    9.6650   15.9380 C   0  0  0  0  0  1  0  0  0  0  0  0
  2  4  2  0
  2  1  1  0
  3  4  1  0
  5  3  3  0
  6  9  1  1
  6  5  1  0
  7  6  1  0
  8  6  1  0
 10  1  1  0
 10 11  1  0
 11 13  1  0
 12 11  2  0
 12 14  1  0
 13 16  1  0
 13 15  2  0
 14 17  2  0
 15 18  1  0
 16 19  1  0
 17 15  1  0
 18 20  1  0
 18 22  1  0
 19 20  1  0
 20 21  2  0
 23 10  1  0
 24 23  2  0
 25 23  2  0
 23 26  1  6
M  RAD  8   1   3   2   2   4   2   7   2   8   2   9   2  12   2  14   2
M  RAD  4  16   3  17   2  19   3  26   2
M  END
>  <vina_score>  (3) 
-7.0679999999999996

>  <pose_id>  (3) 
3

$$$$

     RDKit          3D

 26 27  0  0  0  0  0  0  0  0999 V2000
   18.3610   12.8310   13.6060 C   0  0  0  0  0  2  0  0  0  0  0  0
   19.7090   12.5330   14.1890 C   0  0  0  0  0  3  0  0  0  0  0  0
   21.7940   11.3320   14.2300 C   0  0  0  0  0  0  0  0  0  0  0  0
   20.4910   11.5830   13.6770 C   0  0  0  0  0  3  0  0  0  0  0  0
   22.8880   11.1250   14.6920 C   0  0  0  0  0  0  0  0  0  0  0  0
   24.2270   10.8750   15.2560 C   0  0  1  0  0  0  0  0  0  0  0  0
   25.0950   10.1750   14.1980 C   0  0  0  0  0  1  0  0  0  0  0  0
   24.8630   12.2180   15.6510 C   0  0  0  0  0  1  0  0  0  0  0  0
   24.0890    9.9760   16.4960 C   0  0  0  0  0  1  0  0  0  0  0  0
   18.1530   14.2770   13.5140 N   0  0  0  0  0  0  0  0  0  0  0  0
   18.0590   14.9030   12.2270 C   0  0  0  0  0  0  0  0  0  0  0  0
   16.7950   15.2090   11.7070 C   0  0  0  0  0  3  0  0  0  0  0  0
   19.2180   15.2020   11.4770 C   0  0  0  0  0  0  0  0  0  0  0  0
   16.6700   15.7950   10.4480 C   0  0  0  0  0  3  0  0  0  0  0  0
   19.0820   15.7890   10.1990 C   0  0  0  0  0  0  0  0  0  0  0  0
   20.5960   14.7940   11.9570 C   0  0  0  0  0  2  0  0  0  0  0  0
   17.8090   16.0820    9.6940 C   0  0  0  0  0  3  0  0  0  0  0  0
   20.2480   16.0970    9.4220 N   0  0  0  0  0  0  0  0  0  0  0  0
   21.6840   15.7650   11.4820 C   0  0  0  0  0  2  0  0  0  0  0  0
   21.5500   16.0310   10.0120 C   0  0  0  0  0  0  0  0  0  0  0  0
   22.5720   16.2600    9.3130 O   0  0  0  0  0  0  0  0  0  0  0  0
   20.1480   16.3660    8.4330 H   0  0  0  0  0  0  0  0  0  0  0  0
   17.9650   15.2570   14.9390 S   0  0  1  0  0  0  0  0  0  0  0  0
   17.5920   14.4020   16.1160 O   0  0  0  0  0  0  0  0  0  0  0  0
   19.2600   15.9580   15.2390 O   0  0  0  0  0  0  0  0  0  0  0  0
   16.6840   16.4640   14.6810 C   0  0  0  0  0  1  0  0  0  0  0  0
  1  2  1  0
  3  5  3  0
  4  2  2  0
  4  3  1  0
  5  6  1  0
  6  8  1  1
  6  9  1  0
  7  6  1  0
 10  1  1  0
 10 23  1  0
 11 10  1  0
 12 11  2  0
 13 16  1  0
 13 11  1  0
 14 12  1  0
 15 13  2  0
 17 15  1  0
 17 14  2  0
 18 20  1  0
 18 15  1  0
 19 16  1  0
 20 19  1  0
 21 20  2  0
 22 18  1  0
 23 25  2  0
 23 24  2  0
 23 26  1  6
M  RAD  8   1   3   2   2   4   2   7   2   8   2   9   2  12   2  14   2
M  RAD  4  16   3  17   2  19   3  26   2
M  END
>  <vina_score>  (4) 
-6.9409999999999998

>  <pose_id>  (4) 
4

$$$$

     RDKit          3D

 26 27  0  0  0  0  0  0  0  0999 V2000
   23.8970   10.9080   15.3660 C   0  0  0  0  0  2  0  0  0  0  0  0
   22.7690   10.8540   16.3520 C   0  0  0  0  0  3  0  0  0  0  0  0
   21.8330   10.2580   18.4870 C   0  0  0  0  0  0  0  0  0  0  0  0
   22.9160   10.2730   17.5420 C   0  0  0  0  0  3  0  0  0  0  0  0
   20.9260   10.2490   19.2800 C   0  0  0  0  0  0  0  0  0  0  0  0
   19.8150   10.2340   20.2500 C   0  0  1  0  0  0  0  0  0  0  0  0
   18.7770   11.2900   19.8390 C   0  0  0  0  0  1  0  0  0  0  0  0
   19.1700    8.8380   20.2510 C   0  0  0  0  0  1  0  0  0  0  0  0
   20.3660   10.5570   21.6490 C   0  0  0  0  0  1  0  0  0  0  0  0
   23.3970   10.6980   14.0060 N   0  0  0  0  0  0  0  0  0  0  0  0
   23.3580   11.7950   13.0840 C   0  0  0  0  0  0  0  0  0  0  0  0
   24.4940   12.0850   12.3190 C   0  0  0  0  0  3  0  0  0  0  0  0
   22.1980   12.5890   12.9480 C   0  0  0  0  0  0  0  0  0  0  0  0
   24.4940   13.1620   11.4320 C   0  0  0  0  0  3  0  0  0  0  0  0
   22.2090   13.6820   12.0520 C   0  0  0  0  0  0  0  0  0  0  0  0
   20.9850   12.3740   13.8310 C   0  0  0  0  0  2  0  0  0  0  0  0
   23.3580   13.9600   11.3000 C   0  0  0  0  0  3  0  0  0  0  0  0
   21.0410   14.5020   11.9030 N   0  0  0  0  0  0  0  0  0  0  0  0
   19.6790   12.7450   13.1170 C   0  0  0  0  0  2  0  0  0  0  0  0
   19.7940   14.0950   12.4730 C   0  0  0  0  0  0  0  0  0  0  0  0
   18.7820   14.8390   12.3770 O   0  0  0  0  0  0  0  0  0  0  0  0
   21.1000   15.3880   11.3830 H   0  0  0  0  0  0  0  0  0  0  0  0
   22.8920    9.1250   13.4600 S   0  0  1  0  0  0  0  0  0  0  0  0
   21.3950    9.0080   13.5170 O   0  0  0  0  0  0  0  0  0  0  0  0
   23.3430    8.9180   12.0420 O   0  0  0  0  0  0  0  0  0  0  0  0
   23.6020    7.8660   14.4980 C   0  0  0  0  0  1  0  0  0  0  0  0
  1  2  1  0
  2  4  2  0
  3  5  3  0
  4  3  1  0
  5  6  1  0
  6  8  1  1
  6  9  1  0
  7  6  1  0
 10  1  1  0
 11 10  1  0
 12 11  2  0
 13 11  1  0
 13 16  1  0
 14 12  1  0
 15 13  2  0
 17 14  2  0
 17 15  1  0
 18 15  1  0
 18 20  1  0
 19 16  1  0
 20 19  1  0
 21 20  2  0
 22 18  1  0
 23 24  2  0
 23 10  1  0
 23 26  1  1
 25 23  2  0
M  RAD  8   1   3   2   2   4   2   7   2   8   2   9   2  12   2  14   2
M  RAD  4  16   3  17   2  19   3  26   2
M  END
>  <vina_score>  (5) 
-6.7569999999999997

>  <pose_id>  (5) 
5

$$$$
