
     RDKit          3D

 26 27  0  0  0  0  0  0  0  0999 V2000
   18.7870    9.8550   18.8860 N   0  0  0  0  0  0  0  0  0  0  0  0
   18.6260   10.5380   17.5950 C   0  0  0  0  0  2  0  0  0  0  0  0
   18.3170   12.0210   17.8040 C   0  0  0  0  0  2  0  0  0  0  0  0
   17.0230   12.4190   17.0860 C   0  0  0  0  0  2  0  0  0  0  0  0
   15.8150   12.1930   17.9850 C   0  0  0  0  0  1  0  0  0  0  0  0
   20.1180    9.5110   19.3960 C   0  0  0  0  0  2  0  0  0  0  0  0
   21.1410    9.6860   18.3190 C   0  0  0  0  0  3  0  0  0  0  0  0
   22.3060   10.2820   18.5750 C   0  0  0  0  0  3  0  0  0  0  0  0
   23.2470   10.5300   17.5160 C   0  0  0  0  0  0  0  0  0  0  0  0
   24.0340   10.7550   16.6310 C   0  0  0  0  0  0  0  0  0  0  0  0
   24.9880   11.0440   15.5500 C   0  0  2  0  0  0  0  0  0  0  0  0
   24.7590   12.4800   15.0600 C   0  0  0  0  0  1  0  0  0  0  0  0
   24.7570   10.0570   14.3980 C   0  0  0  0  0  1  0  0  0  0  0  0
   26.4190   10.8990   16.0910 C   0  0  0  0  0  1  0  0  0  0  0  0
   17.6400    9.6330   19.7240 C   0  0  0  0  0  0  0  0  0  0  0  0
   16.7040    8.6570   19.3470 C   0  0  0  0  0  3  0  0  0  0  0  0
   17.4330   10.3780   20.9090 C   0  0  0  0  0  0  0  0  0  0  0  0
   15.5800    8.4060   20.1340 C   0  0  0  0  0  3  0  0  0  0  0  0
   16.2890   10.1150   21.6970 C   0  0  0  0  0  0  0  0  0  0  0  0
   18.3160   11.5590   21.2790 C   0  0  0  0  0  2  0  0  0  0  0  0
   15.3720    9.1320   21.3050 C   0  0  0  0  0  3  0  0  0  0  0  0
   16.0640   10.8530   22.9080 N   0  0  0  0  0  0  0  0  0  0  0  0
   18.4420   11.7230   22.7980 C   0  0  0  0  0  2  0  0  0  0  0  0
   17.0890   11.6870   23.4500 C   0  0  0  0  0  0  0  0  0  0  0  0
   16.8770   12.3320   24.5100 O   0  0  0  0  0  0  0  0  0  0  0  0
   15.1570   10.7820   23.3890 H   0  0  0  0  0  0  0  0  0  0  0  0
  1  6  1  0
  1 15  1  0
  2  3  1  0
  2  1  1  0
  4  3  1  0
  4  5  1  0
  7  8  2  0
  7  6  1  0
  9  8  1  0
 10  9  3  0
 11 14  1  1
 11 10  1  0
 12 11  1  0
 13 11  1  0
 15 17  2  0
 16 15  1  0
 16 18  2  0
 17 20  1  0
 17 19  1  0
 18 21  1  0
 19 22  1  0
 20 23  1  0
 21 19  2  0
 22 26  1  0
 22 24  1  0
 23 24  1  0
 24 25  2  0
M  RAD  8   2   3   3   3   4   3   5   2   6   3   7   2   8   2  12   2
M  RAD  7  13   2  14   2  16   2  18   2  20   3  21   2  23   3
M  END
>  <vina_score>  (1) 
-7.3959999999999999

>  <pose_id>  (1) 
1

$$$$

     RDKit          3D

 26 27  0  0  0  0  0  0  0  0999 V2000
   19.0860    9.8030   19.0850 N   0  0  0  0  0  0  0  0  0  0  0  0
   20.3890    9.5340   19.7080 C   0  0  0  0  0  2  0  0  0  0  0  0
   21.3580   10.6900   19.4550 C   0  0  0  0  0  2  0  0  0  0  0  0
   22.6770   10.1820   18.8640 C   0  0  0  0  0  2  0  0  0  0  0  0
   22.6950   10.3590   17.3510 C   0  0  0  0  0  1  0  0  0  0  0  0
   18.9840   10.1280   17.6590 C   0  0  0  0  0  2  0  0  0  0  0  0
   18.4020   11.4950   17.4860 C   0  0  0  0  0  3  0  0  0  0  0  0
   17.2000   11.6600   16.9320 C   0  0  0  0  0  3  0  0  0  0  0  0
   16.6870   12.9800   16.6840 C   0  0  0  0  0  0  0  0  0  0  0  0
   16.2550   14.0830   16.4590 C   0  0  0  0  0  0  0  0  0  0  0  0
   15.7200   15.4280   16.2000 C   0  0  2  0  0  0  0  0  0  0  0  0
   14.7540   15.8030   17.3320 C   0  0  0  0  0  1  0  0  0  0  0  0
   14.9730   15.4220   14.8580 C   0  0  0  0  0  1  0  0  0  0  0  0
   16.8840   16.4310   16.1510 C   0  0  0  0  0  1  0  0  0  0  0  0
   17.8800    9.6200   19.8470 C   0  0  0  0  0  0  0  0  0  0  0  0
   16.9610    8.6420   19.4370 C   0  0  0  0  0  3  0  0  0  0  0  0
   17.5980   10.4080   20.9880 C   0  0  0  0  0  0  0  0  0  0  0  0
   15.7810    8.4290   20.1500 C   0  0  0  0  0  3  0  0  0  0  0  0
   16.3980   10.1840   21.7010 C   0  0  0  0  0  0  0  0  0  0  0  0
   18.4670   11.5920   21.3800 C   0  0  0  0  0  2  0  0  0  0  0  0
   15.4990    9.1970   21.2780 C   0  0  0  0  0  3  0  0  0  0  0  0
   16.0970   10.9660   22.8670 N   0  0  0  0  0  0  0  0  0  0  0  0
   18.4870   11.8070   22.8980 C   0  0  0  0  0  2  0  0  0  0  0  0
   17.0920   11.8080   23.4530 C   0  0  0  0  0  0  0  0  0  0  0  0
   16.8130   12.4910   24.4720 O   0  0  0  0  0  0  0  0  0  0  0  0
   15.1570   10.9190   23.2840 H   0  0  0  0  0  0  0  0  0  0  0  0
  1  2  1  0
  1 15  1  0
  3  2  1  0
  4  3  1  0
  5  4  1  0
  6  1  1  0
  7  6  1  0
  8  7  2  0
  9  8  1  0
 10  9  3  0
 11 10  1  0
 11 12  1  1
 13 11  1  0
 14 11  1  0
 15 17  2  0
 16 15  1  0
 16 18  2  0
 17 20  1  0
 17 19  1  0
 18 21  1  0
 19 22  1  0
 20 23  1  0
 21 19  2  0
 22 26  1  0
 22 24  1  0
 23 24  1  0
 24 25  2  0
M  RAD  8   2   3   3   3   4   3   5   2   6   3   7   2   8   2  12   2
M  RAD  7  13   2  14   2  16   2  18   2  20   3  21   2  23   3
M  END
>  <vina_score>  (2) 
-7.2850000000000001

>  <pose_id>  (2) 
2

$$$$

     RDKit          3D

 26 27  0  0  0  0  0  0  0  0999 V2000
   17.2070   14.7140   13.2820 N   0  0  0  0  0  0  0  0  0  0  0  0
   17.1880   15.6490   14.4160 C   0  0  0  0  0  2  0  0  0  0  0  0
   15.8720   16.4260   14.4530 C   0  0  0  0  0  2  0  0  0  0  0  0
   14.8980   15.8090   15.4610 C   0  0  0  0  0  2  0  0  0  0  0  0
   15.5780   15.5900   16.8070 C   0  0  0  0  0  1  0  0  0  0  0  0
   16.8660   13.3000   13.4650 C   0  0  0  0  0  2  0  0  0  0  0  0
   17.4650   12.7880   14.7360 C   0  0  0  0  0  3  0  0  0  0  0  0
   16.6920   12.3060   15.7100 C   0  0  0  0  0  3  0  0  0  0  0  0
   17.2650   11.9020   16.9640 C   0  0  0  0  0  0  0  0  0  0  0  0
   17.7370   11.5750   18.0240 C   0  0  0  0  0  0  0  0  0  0  0  0
   18.3160   11.1590   19.3110 C   0  0  2  0  0  0  0  0  0  0  0  0
   18.7760    9.7000   19.1980 C   0  0  0  0  0  1  0  0  0  0  0  0
   17.2490   11.2870   20.4070 C   0  0  0  0  0  1  0  0  0  0  0  0
   19.5170   12.0620   19.6360 C   0  0  0  0  0  1  0  0  0  0  0  0
   17.4360   15.2100   11.9520 C   0  0  0  0  0  0  0  0  0  0  0  0
   16.3420   15.6620   11.1990 C   0  0  0  0  0  3  0  0  0  0  0  0
   18.7330   15.2430   11.3880 C   0  0  0  0  0  0  0  0  0  0  0  0
   16.5210   16.1550    9.9060 C   0  0  0  0  0  3  0  0  0  0  0  0
   18.9020   15.7430   10.0760 C   0  0  0  0  0  0  0  0  0  0  0  0
   19.9280   14.6120   12.0840 C   0  0  0  0  0  2  0  0  0  0  0  0
   17.7960   16.1960    9.3460 C   0  0  0  0  0  3  0  0  0  0  0  0
   20.2100   15.7940    9.4870 N   0  0  0  0  0  0  0  0  0  0  0  0
   21.2320   15.3530   11.7640 C   0  0  0  0  0  2  0  0  0  0  0  0
   21.3740   15.5630   10.2830 C   0  0  0  0  0  0  0  0  0  0  0  0
   22.5140   15.6060    9.7540 O   0  0  0  0  0  0  0  0  0  0  0  0
   20.3110   15.9990    8.4830 H   0  0  0  0  0  0  0  0  0  0  0  0
  1  6  1  0
  1  2  1  0
  2  3  1  0
  3  4  1  0
  4  5  1  0
  6  7  1  0
  7  8  2  0
  8  9  1  0
  9 10  3  0
 10 11  1  0
 11 14  1  1
 11 13  1  0
 12 11  1  0
 15  1  1  0
 16 15  1  0
 17 15  2  0
 17 20  1  0
 18 16  2  0
 19 17  1  0
 21 18  1  0
 21 19  2  0
 22 19  1  0
 22 24  1  0
 23 20  1  0
 24 23  1  0
 25 24  2  0
 26 22  1  0
M  RAD  8   2   3   3   3   4   3   5   2   6   3   7   2   8   2  12   2
M  RAD  7  13   2  14   2  16   2  18   2  20   3  21   2  23   3
M  END
>  <vina_score>  (3) 
-6.9370000000000003

>  <pose_id>  (3) 
3

$$$$

     RDKit          3D

 26 27  0  0  0  0  0  0  0  0999 V2000
   18.7180    9.6620   18.9500 N   0  0  0  0  0  0  0  0  0  0  0  0
   19.9230    8.8790   19.2550 C   0  0  0  0  0  2  0  0  0  0  0  0
   19.8020    7.4610   18.6960 C   0  0  0  0  0  2  0  0  0  0  0  0
   20.8280    7.2200   17.5840 C   0  0  0  0  0  2  0  0  0  0  0  0
   22.1570    7.8830   17.9210 C   0  0  0  0  0  1  0  0  0  0  0  0
   18.6380   10.4820   17.7370 C   0  0  0  0  0  2  0  0  0  0  0  0
   20.0100   10.8800   17.2960 C   0  0  0  0  0  3  0  0  0  0  0  0
   20.4470   10.5820   16.0720 C   0  0  0  0  0  3  0  0  0  0  0  0
   21.7980   10.8850   15.6850 C   0  0  0  0  0  0  0  0  0  0  0  0
   22.9330   11.1230   15.3590 C   0  0  0  0  0  0  0  0  0  0  0  0
   24.3240   11.4140   14.9770 C   0  0  2  0  0  0  0  0  0  0  0  0
   25.1710   11.5370   16.2500 C   0  0  0  0  0  1  0  0  0  0  0  0
   24.3640   12.7330   14.1930 C   0  0  0  0  0  1  0  0  0  0  0  0
   24.8550   10.2650   14.1040 C   0  0  0  0  0  1  0  0  0  0  0  0
   17.5510    9.5280   19.7800 C   0  0  0  0  0  0  0  0  0  0  0  0
   16.5620    8.6030   19.4140 C   0  0  0  0  0  3  0  0  0  0  0  0
   17.3770   10.3120   20.9460 C   0  0  0  0  0  0  0  0  0  0  0  0
   15.4160    8.4380   20.1940 C   0  0  0  0  0  3  0  0  0  0  0  0
   16.2110   10.1360   21.7260 C   0  0  0  0  0  0  0  0  0  0  0  0
   18.3260   11.4450   21.3000 C   0  0  0  0  0  2  0  0  0  0  0  0
   15.2400    9.2020   21.3450 C   0  0  0  0  0  3  0  0  0  0  0  0
   16.0190   10.9140   22.9170 N   0  0  0  0  0  0  0  0  0  0  0  0
   18.4460   11.6360   22.8170 C   0  0  0  0  0  2  0  0  0  0  0  0
   17.0870   11.6970   23.4530 C   0  0  0  0  0  0  0  0  0  0  0  0
   16.9040   12.3770   24.4960 O   0  0  0  0  0  0  0  0  0  0  0  0
   15.1040   10.9080   23.3890 H   0  0  0  0  0  0  0  0  0  0  0  0
  1  2  1  0
  1 15  1  0
  3  2  1  0
  4  5  1  0
  4  3  1  0
  6  1  1  0
  7  6  1  0
  8  7  2  0
  9  8  1  0
 10  9  3  0
 11 10  1  0
 11 12  1  1
 13 11  1  0
 14 11  1  0
 15 17  2  0
 16 15  1  0
 16 18  2  0
 17 20  1  0
 17 19  1  0
 18 21  1  0
 19 22  1  0
 20 23  1  0
 21 19  2  0
 22 26  1  0
 22 24  1  0
 23 24  1  0
 24 25  2  0
M  RAD  8   2   3   3   3   4   3   5   2   6   3   7   2   8   2  12   2
M  RAD  7  13   2  14   2  16   2  18   2  20   3  21   2  23   3
M  END
>  <vina_score>  (4) 
-6.9180000000000001

>  <pose_id>  (4) 
4

$$$$

     RDKit          3D

 26 27  0  0  0  0  0  0  0  0999 V2000
   16.3800   15.2510   13.2010 N   0  0  0  0  0  0  0  0  0  0  0  0
   16.4390   16.1330   14.3750 C   0  0  0  0  0  2  0  0  0  0  0  0
   15.0990   16.1430   15.1110 C   0  0  0  0  0  2  0  0  0  0  0  0
   15.2870   15.8330   16.5990 C   0  0  0  0  0  2  0  0  0  0  0  0
   15.8370   14.4260   16.7940 C   0  0  0  0  0  1  0  0  0  0  0  0
   15.2870   14.2870   13.0350 C   0  0  0  0  0  2  0  0  0  0  0  0
   15.8320   12.8950   13.0040 C   0  0  0  0  0  3  0  0  0  0  0  0
   16.2930   12.3170   14.1140 C   0  0  0  0  0  3  0  0  0  0  0  0
   16.8990   11.0150   14.0610 C   0  0  0  0  0  0  0  0  0  0  0  0
   17.4220    9.9290   14.0220 C   0  0  0  0  0  0  0  0  0  0  0  0
   18.0740    8.6120   13.9670 C   0  0  2  0  0  0  0  0  0  0  0  0
   19.4710    8.7770   13.3550 C   0  0  0  0  0  1  0  0  0  0  0  0
   17.2310    7.6690   13.0960 C   0  0  0  0  0  1  0  0  0  0  0  0
   18.1900    8.0500   15.3930 C   0  0  0  0  0  1  0  0  0  0  0  0
   17.3300   15.4170   12.1350 C   0  0  0  0  0  0  0  0  0  0  0  0
   16.8810   15.8990   10.8960 C   0  0  0  0  0  3  0  0  0  0  0  0
   18.6980   15.0980   12.3060 C   0  0  0  0  0  0  0  0  0  0  0  0
   17.7720   16.0790    9.8360 C   0  0  0  0  0  3  0  0  0  0  0  0
   19.5900   15.2840   11.2240 C   0  0  0  0  0  0  0  0  0  0  0  0
   19.2120   14.4150   13.5630 C   0  0  0  0  0  2  0  0  0  0  0  0
   19.1210   15.7730    9.9980 C   0  0  0  0  0  3  0  0  0  0  0  0
   20.9840   14.9760   11.3790 N   0  0  0  0  0  0  0  0  0  0  0  0
   20.6540   14.8260   13.8870 C   0  0  0  0  0  2  0  0  0  0  0  0
   21.5270   14.7030   12.6710 C   0  0  0  0  0  0  0  0  0  0  0  0
   22.7500   14.4300   12.7920 O   0  0  0  0  0  0  0  0  0  0  0  0
   21.5960   14.9510   10.5520 H   0  0  0  0  0  0  0  0  0  0  0  0
  1  2  1  0
  2  3  1  0
  3  4  1  0
  4  5  1  0
  6  1  1  0
  7  6  1  0
  7  8  2  0
  9  8  1  0
 10  9  3  0
 11 10  1  0
 11 14  1  1
 12 11  1  0
 13 11  1  0
 15 17  2  0
 15  1  1  0
 16 15  1  0
 17 20  1  0
 18 21  1  0
 18 16  2  0
 19 22  1  0
 19 17  1  0
 20 23  1  0
 21 19  2  0
 22 24  1  0
 24 25  2  0
 24 23  1  0
 26 22  1  0
M  RAD  8   2   3   3   3   4   3   5   2   6   3   7   2   8   2  12   2
M  RAD  7  13   2  14   2  16   2  18   2  20   3  21   2  23   3
M  END
>  <vina_score>  (5) 
-6.7089999999999996

>  <pose_id>  (5) 
5

$$$$
