
     RDKit          3D

 23 24  0  0  0  0  0  0  0  0999 V2000
   19.4030    9.9340   18.8600 C   0  0  0  0  0  2  0  0  0  0  0  0
   18.5740    8.8970   19.4830 N   0  0  0  0  0  0  0  0  0  0  0  0
   19.0620    7.5210   19.5900 C   0  0  0  0  0  1  0  0  0  0  0  0
   17.3200    9.2440   20.0890 C   0  0  0  0  0  0  0  0  0  0  0  0
   16.1280    8.7760   19.5150 C   0  0  0  0  0  3  0  0  0  0  0  0
   17.2690   10.0410   21.2560 C   0  0  0  0  0  0  0  0  0  0  0  0
   14.8980    9.0590   20.1090 C   0  0  0  0  0  3  0  0  0  0  0  0
   16.0190   10.3130   21.8550 C   0  0  0  0  0  0  0  0  0  0  0  0
   18.5350   10.5270   21.9330 C   0  0  0  0  0  2  0  0  0  0  0  0
   14.8420    9.8170   21.2790 C   0  0  0  0  0  3  0  0  0  0  0  0
   15.9500   11.1080   23.0470 N   0  0  0  0  0  0  0  0  0  0  0  0
   18.3320   11.8670   22.6530 C   0  0  0  0  0  2  0  0  0  0  0  0
   17.0980   11.8300   23.5020 C   0  0  0  0  0  0  0  0  0  0  0  0
   17.0470   12.4850   24.5760 O   0  0  0  0  0  0  0  0  0  0  0  0
   15.0690   11.1590   23.5780 H   0  0  0  0  0  0  0  0  0  0  0  0
   18.6130   10.6870   17.8310 C   0  0  0  0  0  3  0  0  0  0  0  0
   18.4590   12.0100   17.9070 C   0  0  0  0  0  3  0  0  0  0  0  0
   17.7090   12.7180   16.9080 C   0  0  0  0  0  0  0  0  0  0  0  0
   17.0810   13.3130   16.0670 C   0  0  0  0  0  0  0  0  0  0  0  0
   16.3120   14.0380   15.0390 C   0  0  1  0  0  0  0  0  0  0  0  0
   17.2900   14.7700   14.1060 C   0  0  0  0  0  1  0  0  0  0  0  0
   15.4750   13.0300   14.2350 C   0  0  0  0  0  1  0  0  0  0  0  0
   15.3870   15.0540   15.7300 C   0  0  0  0  0  1  0  0  0  0  0  0
  1  2  1  0
  2  3  1  0
  2  4  1  0
  4  6  2  0
  5  4  1  0
  5  7  2  0
  6  8  1  0
  6  9  1  0
  7 10  1  0
  8 11  1  0
  9 12  1  0
 10  8  2  0
 11 13  1  0
 11 15  1  0
 12 13  1  0
 13 14  2  0
 16 17  2  0
 16  1  1  0
 18 17  1  0
 19 18  3  0
 20 23  1  1
 20 19  1  0
 21 20  1  0
 22 20  1  0
M  RAD  8   1   3   3   2   5   2   7   2   9   3  10   2  12   3  16   2
M  RAD  4  17   2  21   2  22   2  23   2
M  END
>  <vina_score>  (1) 
-7.0419999999999998

>  <pose_id>  (1) 
1

$$$$

     RDKit          3D

 23 24  0  0  0  0  0  0  0  0999 V2000
   14.5780   10.4160   19.8970 C   0  0  0  0  0  2  0  0  0  0  0  0
   15.8490    9.7850   20.2670 N   0  0  0  0  0  0  0  0  0  0  0  0
   16.2950    8.5640   19.5960 C   0  0  0  0  0  1  0  0  0  0  0  0
   16.7190   10.4200   21.2170 C   0  0  0  0  0  0  0  0  0  0  0  0
   16.1920   10.8580   22.4420 C   0  0  0  0  0  3  0  0  0  0  0  0
   18.0930   10.6020   20.9410 C   0  0  0  0  0  0  0  0  0  0  0  0
   17.0230   11.4360   23.4020 C   0  0  0  0  0  3  0  0  0  0  0  0
   18.9280   11.1780   21.9240 C   0  0  0  0  0  0  0  0  0  0  0  0
   18.7100   10.1000   19.6500 C   0  0  0  0  0  2  0  0  0  0  0  0
   18.3860   11.5890   23.1500 C   0  0  0  0  0  3  0  0  0  0  0  0
   20.3270   11.3570   21.6660 N   0  0  0  0  0  0  0  0  0  0  0  0
   19.9010   10.9570   19.2030 C   0  0  0  0  0  2  0  0  0  0  0  0
   20.8460   11.1850   20.3440 C   0  0  0  0  0  0  0  0  0  0  0  0
   22.0820   11.2930   20.1320 O   0  0  0  0  0  0  0  0  0  0  0  0
   20.9620   11.6110   22.4360 H   0  0  0  0  0  0  0  0  0  0  0  0
   14.8240   11.6480   19.0780 C   0  0  0  0  0  3  0  0  0  0  0  0
   15.6210   11.6220   18.0090 C   0  0  0  0  0  3  0  0  0  0  0  0
   15.8380   12.8070   17.2280 C   0  0  0  0  0  0  0  0  0  0  0  0
   16.0180   13.8020   16.5710 C   0  0  0  0  0  0  0  0  0  0  0  0
   16.2370   15.0190   15.7660 C   0  0  1  0  0  0  0  0  0  0  0  0
   17.7070   15.0670   15.3210 C   0  0  0  0  0  1  0  0  0  0  0  0
   15.3170   14.9770   14.5350 C   0  0  0  0  0  1  0  0  0  0  0  0
   15.9080   16.2530   16.6240 C   0  0  0  0  0  1  0  0  0  0  0  0
  1  2  1  0
  2  4  1  0
  3  2  1  0
  4  5  1  0
  5  7  2  0
  6  4  2  0
  6  8  1  0
  8 10  2  0
  9  6  1  0
 10  7  1  0
 11  8  1  0
 11 15  1  0
 12  9  1  0
 12 13  1  0
 13 11  1  0
 14 13  2  0
 16  1  1  0
 17 16  2  0
 18 17  1  0
 19 18  3  0
 20 19  1  0
 20 23  1  1
 21 20  1  0
 22 20  1  0
M  RAD  8   1   3   3   2   5   2   7   2   9   3  10   2  12   3  16   2
M  RAD  4  17   2  21   2  22   2  23   2
M  END
>  <vina_score>  (2) 
-6.8680000000000003

>  <pose_id>  (2) 
2

$$$$

     RDKit          3D

 23 24  0  0  0  0  0  0  0  0999 V2000
   16.6150   13.9080   15.6970 C   0  0  0  0  0  2  0  0  0  0  0  0
   16.8440   13.2710   14.3950 N   0  0  0  0  0  0  0  0  0  0  0  0
   17.2770   11.8750   14.3170 C   0  0  0  0  0  1  0  0  0  0  0  0
   16.5430   13.9790   13.1830 C   0  0  0  0  0  0  0  0  0  0  0  0
   15.2200   14.0100   12.7190 C   0  0  0  0  0  3  0  0  0  0  0  0
   17.5550   14.6490   12.4580 C   0  0  0  0  0  0  0  0  0  0  0  0
   14.8900   14.7290   11.5700 C   0  0  0  0  0  3  0  0  0  0  0  0
   17.2100   15.3830   11.3020 C   0  0  0  0  0  0  0  0  0  0  0  0
   18.9890   14.6790   12.9520 C   0  0  0  0  0  2  0  0  0  0  0  0
   15.8780   15.4200   10.8670 C   0  0  0  0  0  3  0  0  0  0  0  0
   18.2220   16.0810   10.5630 N   0  0  0  0  0  0  0  0  0  0  0  0
   19.9980   14.7700   11.8010 C   0  0  0  0  0  2  0  0  0  0  0  0
   19.6070   15.8480   10.8370 C   0  0  0  0  0  0  0  0  0  0  0  0
   20.4900   16.5000   10.2210 O   0  0  0  0  0  0  0  0  0  0  0  0
   17.9500   16.7520    9.8300 H   0  0  0  0  0  0  0  0  0  0  0  0
   16.8220   12.9200   16.8060 C   0  0  0  0  0  3  0  0  0  0  0  0
   15.8260   12.5790   17.6250 C   0  0  0  0  0  3  0  0  0  0  0  0
   16.0370   11.6240   18.6760 C   0  0  0  0  0  0  0  0  0  0  0  0
   16.2140   10.8190   19.5570 C   0  0  0  0  0  0  0  0  0  0  0  0
   16.4290    9.8380   20.6360 C   0  0  1  0  0  0  0  0  0  0  0  0
   17.8560    9.2760   20.5250 C   0  0  0  0  0  1  0  0  0  0  0  0
   16.2450   10.5360   21.9930 C   0  0  0  0  0  1  0  0  0  0  0  0
   15.4050    8.7000   20.4900 C   0  0  0  0  0  1  0  0  0  0  0  0
  1 16  1  0
  2  1  1  0
  3  2  1  0
  4  2  1  0
  5  4  1  0
  6  9  1  0
  6  4  2  0
  7  5  2  0
  8  6  1  0
 10  8  2  0
 10  7  1  0
 11 13  1  0
 11  8  1  0
 12  9  1  0
 13 12  1  0
 14 13  2  0
 15 11  1  0
 16 17  2  0
 17 18  1  0
 18 19  3  0
 19 20  1  0
 20 22  1  1
 21 20  1  0
 23 20  1  0
M  RAD  8   1   3   3   2   5   2   7   2   9   3  10   2  12   3  16   2
M  RAD  4  17   2  21   2  22   2  23   2
M  END
>  <vina_score>  (3) 
-6.8449999999999998

>  <pose_id>  (3) 
3

$$$$

     RDKit          3D

 23 24  0  0  0  0  0  0  0  0999 V2000
   19.8580    8.8170   18.9070 C   0  0  0  0  0  2  0  0  0  0  0  0
   18.6550    9.6350   18.7200 N   0  0  0  0  0  0  0  0  0  0  0  0
   18.5430   10.5410   17.5770 C   0  0  0  0  0  1  0  0  0  0  0  0
   17.5310    9.4740   19.5990 C   0  0  0  0  0  0  0  0  0  0  0  0
   16.4840    8.6200   19.2240 C   0  0  0  0  0  3  0  0  0  0  0  0
   17.4680   10.1570   20.8360 C   0  0  0  0  0  0  0  0  0  0  0  0
   15.4020    8.4090   20.0780 C   0  0  0  0  0  3  0  0  0  0  0  0
   16.3740    9.9290   21.6990 C   0  0  0  0  0  0  0  0  0  0  0  0
   18.6010   11.0530   21.2990 C   0  0  0  0  0  2  0  0  0  0  0  0
   15.3490    9.0530   21.3150 C   0  0  0  0  0  3  0  0  0  0  0  0
   16.3010   10.6020   22.9630 N   0  0  0  0  0  0  0  0  0  0  0  0
   18.1080   12.1980   22.1920 C   0  0  0  0  0  2  0  0  0  0  0  0
   17.1930   11.6810   23.2600 C   0  0  0  0  0  0  0  0  0  0  0  0
   17.1590   12.2340   24.3900 O   0  0  0  0  0  0  0  0  0  0  0  0
   15.6030   10.3070   23.6610 H   0  0  0  0  0  0  0  0  0  0  0  0
   20.9320    9.2390   17.9480 C   0  0  0  0  0  3  0  0  0  0  0  0
   21.9650    9.9810   18.3480 C   0  0  0  0  0  3  0  0  0  0  0  0
   22.9910   10.3680   17.4200 C   0  0  0  0  0  0  0  0  0  0  0  0
   23.8530   10.6910   16.6420 C   0  0  0  0  0  0  0  0  0  0  0  0
   24.9070   11.0850   15.6880 C   0  0  1  0  0  0  0  0  0  0  0  0
   26.2640   11.0800   16.4100 C   0  0  0  0  0  1  0  0  0  0  0  0
   24.9300   10.0810   14.5240 C   0  0  0  0  0  1  0  0  0  0  0  0
   24.6010   12.4950   15.1570 C   0  0  0  0  0  1  0  0  0  0  0  0
  2  1  1  0
  2  4  1  0
  3  2  1  0
  4  6  2  0
  5  4  1  0
  5  7  2  0
  6  9  1  0
  6  8  1  0
  7 10  1  0
  8 11  1  0
  9 12  1  0
 10  8  2  0
 11 13  1  0
 11 15  1  0
 12 13  1  0
 13 14  2  0
 16 17  2  0
 16  1  1  0
 18 17  1  0
 19 18  3  0
 20 21  1  1
 20 19  1  0
 22 20  1  0
 23 20  1  0
M  RAD  8   1   3   3   2   5   2   7   2   9   3  10   2  12   3  16   2
M  RAD  4  17   2  21   2  22   2  23   2
M  END
>  <vina_score>  (4) 
-6.7949999999999999

>  <pose_id>  (4) 
4

$$$$

     RDKit          3D

 23 24  0  0  0  0  0  0  0  0999 V2000
   20.8090   10.4960   20.6620 C   0  0  0  0  0  2  0  0  0  0  0  0
   19.6020   11.3050   20.4640 N   0  0  0  0  0  0  0  0  0  0  0  0
   19.6040   12.4240   19.5200 C   0  0  0  0  0  1  0  0  0  0  0  0
   18.3750   10.9410   21.1150 C   0  0  0  0  0  0  0  0  0  0  0  0
   18.0940   11.4600   22.3870 C   0  0  0  0  0  3  0  0  0  0  0  0
   17.4470   10.0750   20.4920 C   0  0  0  0  0  0  0  0  0  0  0  0
   16.8900   11.1600   23.0240 C   0  0  0  0  0  3  0  0  0  0  0  0
   16.2260    9.7860   21.1400 C   0  0  0  0  0  0  0  0  0  0  0  0
   17.6920    9.5300   19.0980 C   0  0  0  0  0  2  0  0  0  0  0  0
   15.9540   10.3340   22.4010 C   0  0  0  0  0  3  0  0  0  0  0  0
   15.2670    8.9210   20.5160 N   0  0  0  0  0  0  0  0  0  0  0  0
   17.0490    8.1520   18.8920 C   0  0  0  0  0  2  0  0  0  0  0  0
   15.6270    8.1560   19.3610 C   0  0  0  0  0  0  0  0  0  0  0  0
   14.7670    7.4380   18.7870 O   0  0  0  0  0  0  0  0  0  0  0  0
   14.3140    8.8510   20.9010 H   0  0  0  0  0  0  0  0  0  0  0  0
   21.8380   10.8280   19.6230 C   0  0  0  0  0  3  0  0  0  0  0  0
   22.1070    9.9910   18.6210 C   0  0  0  0  0  3  0  0  0  0  0  0
   23.0870   10.3280   17.6280 C   0  0  0  0  0  0  0  0  0  0  0  0
   23.9100   10.6130   16.7920 C   0  0  0  0  0  0  0  0  0  0  0  0
   24.9140   10.9600   15.7690 C   0  0  1  0  0  0  0  0  0  0  0  0
   26.3190   10.7400   16.3520 C   0  0  0  0  0  1  0  0  0  0  0  0
   24.7090   10.0580   14.5410 C   0  0  0  0  0  1  0  0  0  0  0  0
   24.7360   12.4350   15.3720 C   0  0  0  0  0  1  0  0  0  0  0  0
  2  1  1  0
  2  4  1  0
  3  2  1  0
  4  5  1  0
  5  7  2  0
  6  4  2  0
  6  8  1  0
  8 10  2  0
  9  6  1  0
 10  7  1  0
 11 15  1  0
 11  8  1  0
 12  9  1  0
 12 13  1  0
 13 11  1  0
 14 13  2  0
 16  1  1  0
 17 16  2  0
 18 17  1  0
 19 18  3  0
 20 21  1  1
 20 19  1  0
 22 20  1  0
 23 20  1  0
M  RAD  8   1   3   3   2   5   2   7   2   9   3  10   2  12   3  16   2
M  RAD  4  17   2  21   2  22   2  23   2
M  END
>  <vina_score>  (5) 
-6.5890000000000004

>  <pose_id>  (5) 
5

$$$$
