
     RDKit          3D

 33 34  0  0  1  0  0  0  0  0999 V2000
   20.0670   13.9640   13.0360 C   0  0  0  0  0  3  0  0  0  0  0  0
   18.8750   14.8250   13.4790 C   0  0  0  0  0  2  0  0  0  0  0  0
   17.9980   15.2280   12.3100 C   0  0  0  0  0  0  0  0  0  0  0  0
   18.5950   15.4900   11.0580 C   0  0  0  0  0  0  0  0  0  0  0  0
   17.8100   15.9300    9.9850 C   0  0  0  0  0  3  0  0  0  0  0  0
   16.4380   16.1150   10.1490 C   0  0  0  0  0  3  0  0  0  0  0  0
   15.8400   15.8730   11.3870 C   0  0  0  0  0  3  0  0  0  0  0  0
   16.6110   15.4380   12.4750 C   0  0  0  0  0  0  0  0  0  0  0  0
   20.0050   15.2950   10.8810 N   0  0  0  0  0  0  0  0  0  0  0  0
   20.7720   14.6240   11.8840 C   0  0  0  0  0  0  0  0  0  0  0  0
   22.0240   14.5380   11.7710 O   0  0  0  0  0  0  0  0  0  0  0  0
   20.4670   15.6400   10.0280 H   0  0  0  0  0  0  0  0  0  0  0  0
   19.5890   12.6800   12.6350 O   0  0  0  0  0  0  0  0  0  0  0  0
   20.2760   11.4870   12.8880 C   0  0  0  0  0  0  0  0  0  0  0  0
   21.5150   11.3990   12.6660 O   0  0  0  0  0  0  0  0  0  0  0  0
   19.5280   10.3030   13.4480 C   0  0  0  0  0  0  0  0  0  0  0  0
   19.1650   10.5160   14.9430 C   0  0  0  0  0  3  0  0  0  0  0  0
   18.3280    9.3440   15.4780 C   0  0  0  0  0  1  0  0  0  0  0  0
   20.4240   10.6810   15.8130 C   0  0  0  0  0  1  0  0  0  0  0  0
   18.3190   10.0590   12.6560 N   0  0  0  0  0  0  0  0  0  0  0  0
   18.2130   10.8040   11.9520 H   0  0  0  0  0  0  0  0  0  0  0  0
   18.3980    9.1480   12.1820 H   0  0  0  0  0  0  0  0  0  0  0  0
   15.9820   15.2260   13.7490 N   0  0  0  0  0  0  0  0  0  0  0  0
   15.7310   16.3720   14.6240 C   0  0  0  0  0  1  0  0  0  0  0  0
   15.3670   13.9310   14.0500 C   0  0  0  0  0  2  0  0  0  0  0  0
   16.0070   13.3210   15.2200 C   0  0  0  0  0  0  0  0  0  0  0  0
   16.5380   12.8300   16.1840 C   0  0  0  0  0  0  0  0  0  0  0  0
   17.1640   12.2620   17.3150 C   0  0  0  0  0  0  0  0  0  0  0  0
   17.7050   11.7800   18.2810 C   0  0  0  0  0  0  0  0  0  0  0  0
   18.3640   11.1970   19.4640 C   0  0  1  0  0  0  0  0  0  0  0  0
   19.6140   12.0240   19.8000 C   0  0  0  0  0  1  0  0  0  0  0  0
   17.3830   11.2230   20.6480 C   0  0  0  0  0  1  0  0  0  0  0  0
   18.7650    9.7460   19.1500 C   0  0  0  0  0  1  0  0  0  0  0  0
  1 13  1  0
  1  2  1  0
  3  8  2  0
  3  2  1  0
  4  3  1  0
  5  6  1  0
  5  4  2  0
  6  7  2  0
  7  8  1  0
  8 23  1  0
  9  4  1  0
  9 10  1  0
 10  1  1  0
 11 10  2  0
 12  9  1  0
 13 14  1  0
 15 14  2  0
 16 14  1  0
 16 17  1  0
 17 18  1  0
 17 19  1  0
 20 16  1  0
 21 20  1  0
 22 20  1  0
 23 25  1  0
 23 24  1  0
 25 26  1  0
 26 27  3  0
 27 28  1  0
 28 29  3  0
 29 30  1  0
 30 31  1  1
 30 32  1  0
 33 30  1  0
M  RAD  8   1   2   2   3   5   2   6   2   7   2  17   2  18   2  19   2
M  RAD  5  24   2  25   3  31   2  32   2  33   2
M  END
>  <vina_score>  (1) 
-6.9809999999999999

>  <pose_id>  (1) 
1

$$$$

     RDKit          3D

 33 34  0  0  1  0  0  0  0  0999 V2000
   18.5550    8.9090   18.3800 C   0  0  0  0  0  3  0  0  0  0  0  0
   17.4990    8.7030   19.4750 C   0  0  0  0  0  2  0  0  0  0  0  0
   17.6640    9.6850   20.6180 C   0  0  0  0  0  0  0  0  0  0  0  0
   18.9630   10.0910   20.9960 C   0  0  0  0  0  0  0  0  0  0  0  0
   19.1400   10.9430   22.0930 C   0  0  0  0  0  3  0  0  0  0  0  0
   18.0370   11.3920   22.8180 C   0  0  0  0  0  3  0  0  0  0  0  0
   16.7500   10.9850   22.4620 C   0  0  0  0  0  3  0  0  0  0  0  0
   16.5530   10.1260   21.3710 C   0  0  0  0  0  0  0  0  0  0  0  0
   20.1010    9.6390   20.2490 N   0  0  0  0  0  0  0  0  0  0  0  0
   19.9240    8.9720   18.9970 C   0  0  0  0  0  0  0  0  0  0  0  0
   20.9180    8.4920   18.3890 O   0  0  0  0  0  0  0  0  0  0  0  0
   21.0500    9.7950   20.6170 H   0  0  0  0  0  0  0  0  0  0  0  0
   18.2810   10.1310   17.6940 O   0  0  0  0  0  0  0  0  0  0  0  0
   18.3280   10.2620   16.3010 C   0  0  0  0  0  0  0  0  0  0  0  0
   17.2750   10.1720   15.6110 O   0  0  0  0  0  0  0  0  0  0  0  0
   19.6470   10.5350   15.6250 C   0  0  0  0  0  0  0  0  0  0  0  0
   19.4570   11.3400   14.3100 C   0  0  0  0  0  3  0  0  0  0  0  0
   20.5380   12.4220   14.1660 C   0  0  0  0  0  1  0  0  0  0  0  0
   19.4860   10.4230   13.0750 C   0  0  0  0  0  1  0  0  0  0  0  0
   20.5370   11.2530   16.5420 N   0  0  0  0  0  0  0  0  0  0  0  0
   20.3720   10.9280   17.5060 H   0  0  0  0  0  0  0  0  0  0  0  0
   21.5170   11.0720   16.2820 H   0  0  0  0  0  0  0  0  0  0  0  0
   15.2240    9.6930   21.0400 N   0  0  0  0  0  0  0  0  0  0  0  0
   14.8130    8.3270   21.3700 C   0  0  0  0  0  1  0  0  0  0  0  0
   14.2200   10.6760   20.6260 C   0  0  0  0  0  2  0  0  0  0  0  0
   14.6740   11.3970   19.4320 C   0  0  0  0  0  0  0  0  0  0  0  0
   15.0540   11.9810   18.4490 C   0  0  0  0  0  0  0  0  0  0  0  0
   15.4930   12.6710   17.2990 C   0  0  0  0  0  0  0  0  0  0  0  0
   15.8640   13.2650   16.3150 C   0  0  0  0  0  0  0  0  0  0  0  0
   16.3110   13.9890   15.1110 C   0  0  1  0  0  0  0  0  0  0  0  0
   16.2660   13.0350   13.9060 C   0  0  0  0  0  1  0  0  0  0  0  0
   15.3740   15.1840   14.8680 C   0  0  0  0  0  1  0  0  0  0  0  0
   17.7480   14.4890   15.3300 C   0  0  0  0  0  1  0  0  0  0  0  0
  1 13  1  0
  1 10  1  0
  1  2  1  0
  2  3  1  0
  3  4  1  0
  3  8  2  0
  4  5  2  0
  5  6  1  0
  7  6  2  0
  8  7  1  0
  9 12  1  0
  9  4  1  0
 10  9  1  0
 11 10  2  0
 14 13  1  0
 15 14  2  0
 16 17  1  0
 16 14  1  0
 16 20  1  0
 18 17  1  0
 19 17  1  0
 20 21  1  0
 22 20  1  0
 23 24  1  0
 23  8  1  0
 25 23  1  0
 26 25  1  0
 27 26  3  0
 28 27  1  0
 29 28  3  0
 30 33  1  1
 30 29  1  0
 31 30  1  0
 32 30  1  0
M  RAD  8   1   2   2   3   5   2   6   2   7   2  17   2  18   2  19   2
M  RAD  5  24   2  25   3  31   2  32   2  33   2
M  END
>  <vina_score>  (2) 
-6.7469999999999999

>  <pose_id>  (2) 
2

$$$$

     RDKit          3D

 33 34  0  0  1  0  0  0  0  0999 V2000
   17.6090   11.8370   16.7150 C   0  0  0  0  0  3  0  0  0  0  0  0
   18.3110   11.7920   18.0790 C   0  0  0  0  0  2  0  0  0  0  0  0
   17.4390   11.1620   19.1480 C   0  0  0  0  0  0  0  0  0  0  0  0
   16.0430   11.3710   19.1100 C   0  0  0  0  0  0  0  0  0  0  0  0
   15.2290   10.8550   20.1260 C   0  0  0  0  0  3  0  0  0  0  0  0
   15.7920   10.1380   21.1800 C   0  0  0  0  0  3  0  0  0  0  0  0
   17.1730    9.9380   21.2350 C   0  0  0  0  0  3  0  0  0  0  0  0
   18.0050   10.4530   20.2300 C   0  0  0  0  0  0  0  0  0  0  0  0
   15.4570   12.1020   18.0240 N   0  0  0  0  0  0  0  0  0  0  0  0
   16.2340   12.4240   16.8680 C   0  0  0  0  0  0  0  0  0  0  0  0
   15.7460   13.1470   15.9590 O   0  0  0  0  0  0  0  0  0  0  0  0
   14.4720   12.3970   18.0780 H   0  0  0  0  0  0  0  0  0  0  0  0
   17.5100   10.5100   16.1980 O   0  0  0  0  0  0  0  0  0  0  0  0
   17.7350   10.1850   14.8560 C   0  0  0  0  0  0  0  0  0  0  0  0
   17.0740    9.2650   14.2980 O   0  0  0  0  0  0  0  0  0  0  0  0
   18.7610   10.9560   14.0650 C   0  0  0  0  0  0  0  0  0  0  0  0
   20.1780   10.8200   14.6870 C   0  0  0  0  0  3  0  0  0  0  0  0
   20.9550    9.6650   14.0370 C   0  0  0  0  0  1  0  0  0  0  0  0
   20.9860   12.1210   14.5450 C   0  0  0  0  0  1  0  0  0  0  0  0
   18.7640   10.4950   12.6740 N   0  0  0  0  0  0  0  0  0  0  0  0
   19.7000   10.1370   12.4320 H   0  0  0  0  0  0  0  0  0  0  0  0
   18.0690    9.7440   12.5590 H   0  0  0  0  0  0  0  0  0  0  0  0
   19.4270   10.2650   20.3210 N   0  0  0  0  0  0  0  0  0  0  0  0
   20.1950   11.0590   21.2820 C   0  0  0  0  0  1  0  0  0  0  0  0
   20.0530    9.1180   19.6590 C   0  0  0  0  0  2  0  0  0  0  0  0
   21.1130    9.5690   18.7510 C   0  0  0  0  0  0  0  0  0  0  0  0
   21.9840    9.9490   18.0100 C   0  0  0  0  0  0  0  0  0  0  0  0
   23.0010   10.3920   17.1360 C   0  0  0  0  0  0  0  0  0  0  0  0
   23.8690   10.7650   16.3850 C   0  0  0  0  0  0  0  0  0  0  0  0
   24.9300   11.2160   15.4660 C   0  0  1  0  0  0  0  0  0  0  0  0
   26.2940   11.0420   16.1530 C   0  0  0  0  0  1  0  0  0  0  0  0
   24.8760   10.3690   14.1840 C   0  0  0  0  0  1  0  0  0  0  0  0
   24.7010   12.6970   15.1230 C   0  0  0  0  0  1  0  0  0  0  0  0
  1 13  1  0
  1 10  1  0
  1  2  1  0
  2  3  1  0
  3  8  2  0
  4  3  1  0
  4  5  2  0
  5  6  1  0
  6  7  2  0
  8 23  1  0
  8  7  1  0
  9 12  1  0
  9  4  1  0
 10  9  1  0
 11 10  2  0
 14 13  1  0
 15 14  2  0
 16 17  1  0
 16 14  1  0
 18 17  1  0
 19 17  1  0
 20 16  1  0
 21 20  1  0
 22 20  1  0
 23 24  1  0
 25 23  1  0
 26 25  1  0
 27 26  3  0
 28 27  1  0
 29 28  3  0
 30 31  1  1
 30 29  1  0
 32 30  1  0
 33 30  1  0
M  RAD  8   1   2   2   3   5   2   6   2   7   2  17   2  18   2  19   2
M  RAD  5  24   2  25   3  31   2  32   2  33   2
M  END
>  <vina_score>  (3) 
-6.4829999999999997

>  <pose_id>  (3) 
3

$$$$

     RDKit          3D

 33 34  0  0  1  0  0  0  0  0999 V2000
   17.3680   11.6940   14.6170 C   0  0  0  0  0  3  0  0  0  0  0  0
   16.4900   12.6440   13.7920 C   0  0  0  0  0  2  0  0  0  0  0  0
   16.3710   14.0130   14.4340 C   0  0  0  0  0  0  0  0  0  0  0  0
   16.3420   14.1140   15.8420 C   0  0  0  0  0  0  0  0  0  0  0  0
   16.1640   15.3620   16.4520 C   0  0  0  0  0  3  0  0  0  0  0  0
   16.0110   16.5080   15.6740 C   0  0  0  0  0  3  0  0  0  0  0  0
   16.0240   16.4170   14.2810 C   0  0  0  0  0  3  0  0  0  0  0  0
   16.1940   15.1760   13.6510 C   0  0  0  0  0  0  0  0  0  0  0  0
   16.5070   12.9390   16.6490 N   0  0  0  0  0  0  0  0  0  0  0  0
   16.9260   11.7080   16.0530 C   0  0  0  0  0  0  0  0  0  0  0  0
   16.9770   10.6560   16.7450 O   0  0  0  0  0  0  0  0  0  0  0  0
   16.3210   12.9820   17.6610 H   0  0  0  0  0  0  0  0  0  0  0  0
   18.7270   12.1230   14.5290 O   0  0  0  0  0  0  0  0  0  0  0  0
   19.8190   11.2970   14.8180 C   0  0  0  0  0  0  0  0  0  0  0  0
   20.3710   11.3350   15.9530 O   0  0  0  0  0  0  0  0  0  0  0  0
   20.3240   10.3390   13.7700 C   0  0  0  0  0  0  0  0  0  0  0  0
   20.1900    8.8630   14.2350 C   0  0  0  0  0  3  0  0  0  0  0  0
   18.7400    8.3740   14.1000 C   0  0  0  0  0  1  0  0  0  0  0  0
   21.1180    7.9310   13.4370 C   0  0  0  0  0  1  0  0  0  0  0  0
   19.5980   10.5490   12.5140 N   0  0  0  0  0  0  0  0  0  0  0  0
   18.8540    9.8430   12.4240 H   0  0  0  0  0  0  0  0  0  0  0  0
   19.1800   11.4910   12.5130 H   0  0  0  0  0  0  0  0  0  0  0  0
   16.1710   15.0980   12.2170 N   0  0  0  0  0  0  0  0  0  0  0  0
   14.9630   14.6190   11.5440 C   0  0  0  0  0  1  0  0  0  0  0  0
   17.2340   15.7370   11.4370 C   0  0  0  0  0  2  0  0  0  0  0  0
   18.5320   15.1300   11.7510 C   0  0  0  0  0  0  0  0  0  0  0  0
   19.5930   14.6220   12.0130 C   0  0  0  0  0  0  0  0  0  0  0  0
   20.8340   14.0270   12.3290 C   0  0  0  0  0  0  0  0  0  0  0  0
   21.8940   13.5200   12.6050 C   0  0  0  0  0  0  0  0  0  0  0  0
   23.1900   12.9050   12.9460 C   0  0  1  0  0  0  0  0  0  0  0  0
   24.3230   13.8330   12.4820 C   0  0  0  0  0  1  0  0  0  0  0  0
   23.2650   12.7060   14.4690 C   0  0  0  0  0  1  0  0  0  0  0  0
   23.3030   11.5460   12.2350 C   0  0  0  0  0  1  0  0  0  0  0  0
  1 13  1  0
  1 10  1  0
  2  3  1  0
  2  1  1  0
  3  4  1  0
  4  5  2  0
  4  9  1  0
  6  5  1  0
  7  6  2  0
  8  7  1  0
  8  3  2  0
  9 12  1  0
 10  9  1  0
 10 11  2  0
 13 14  1  0
 14 15  2  0
 16 17  1  0
 16 14  1  0
 18 17  1  0
 19 17  1  0
 20 16  1  0
 21 20  1  0
 22 20  1  0
 23  8  1  0
 24 23  1  0
 25 26  1  0
 25 23  1  0
 26 27  3  0
 27 28  1  0
 28 29  3  0
 29 30  1  0
 30 32  1  1
 31 30  1  0
 33 30  1  0
M  RAD  8   1   2   2   3   5   2   6   2   7   2  17   2  18   2  19   2
M  RAD  5  24   2  25   3  31   2  32   2  33   2
M  END
>  <vina_score>  (4) 
-6.4349999999999996

>  <pose_id>  (4) 
4

$$$$

     RDKit          3D

 33 34  0  0  1  0  0  0  0  0999 V2000
   19.7450    9.1850   14.9430 C   0  0  0  0  0  3  0  0  0  0  0  0
   19.6840    8.9200   16.4540 C   0  0  0  0  0  2  0  0  0  0  0  0
   20.9340    9.3980   17.1670 C   0  0  0  0  0  0  0  0  0  0  0  0
   22.1810    9.3040   16.5120 C   0  0  0  0  0  0  0  0  0  0  0  0
   23.3540    9.6770   17.1800 C   0  0  0  0  0  3  0  0  0  0  0  0
   23.2970   10.1390   18.4940 C   0  0  0  0  0  3  0  0  0  0  0  0
   22.0700   10.2220   19.1550 C   0  0  0  0  0  3  0  0  0  0  0  0
   20.8860    9.8470   18.5060 C   0  0  0  0  0  0  0  0  0  0  0  0
   22.2460    8.8370   15.1570 N   0  0  0  0  0  0  0  0  0  0  0  0
   21.0490    8.6830   14.3890 C   0  0  0  0  0  0  0  0  0  0  0  0
   21.0990    8.1830   13.2340 O   0  0  0  0  0  0  0  0  0  0  0  0
   23.1580    8.6100   14.7360 H   0  0  0  0  0  0  0  0  0  0  0  0
   19.6350   10.5890   14.7130 O   0  0  0  0  0  0  0  0  0  0  0  0
   19.5880   11.1620   13.4370 C   0  0  0  0  0  0  0  0  0  0  0  0
   18.6100   10.9420   12.6690 O   0  0  0  0  0  0  0  0  0  0  0  0
   20.7060   12.0670   12.9860 C   0  0  0  0  0  0  0  0  0  0  0  0
   21.3100   12.8610   14.1760 C   0  0  0  0  0  3  0  0  0  0  0  0
   22.7420   12.3940   14.4800 C   0  0  0  0  0  1  0  0  0  0  0  0
   21.3160   14.3750   13.9010 C   0  0  0  0  0  1  0  0  0  0  0  0
   21.7440   11.2770   12.3160 N   0  0  0  0  0  0  0  0  0  0  0  0
   21.3020   10.5380   11.7510 H   0  0  0  0  0  0  0  0  0  0  0  0
   22.3010   11.8910   11.7040 H   0  0  0  0  0  0  0  0  0  0  0  0
   19.6370    9.9090   19.2150 N   0  0  0  0  0  0  0  0  0  0  0  0
   19.1070    8.6960   19.8400 C   0  0  0  0  0  1  0  0  0  0  0  0
   19.0450   11.2100   19.5320 C   0  0  0  0  0  2  0  0  0  0  0  0
   18.5120   11.8380   18.3180 C   0  0  0  0  0  0  0  0  0  0  0  0
   18.0750   12.3430   17.3150 C   0  0  0  0  0  0  0  0  0  0  0  0
   17.5590   12.9420   16.1450 C   0  0  0  0  0  0  0  0  0  0  0  0
   17.1150   13.4570   15.1480 C   0  0  0  0  0  0  0  0  0  0  0  0
   16.5660   14.0870   13.9330 C   0  0  1  0  0  0  0  0  0  0  0  0
   15.5910   13.1090   13.2580 C   0  0  0  0  0  1  0  0  0  0  0  0
   15.8270   15.3760   14.3270 C   0  0  0  0  0  1  0  0  0  0  0  0
   17.7210   14.4200   12.9750 C   0  0  0  0  0  1  0  0  0  0  0  0
  1 13  1  0
  1  2  1  0
  2  3  1  0
  3  8  2  0
  4  3  1  0
  4  5  2  0
  5  6  1  0
  6  7  2  0
  8  7  1  0
  8 23  1  0
  9  4  1  0
 10  1  1  0
 10  9  1  0
 11 10  2  0
 12  9  1  0
 14 13  1  0
 15 14  2  0
 16 14  1  0
 16 17  1  0
 17 18  1  0
 19 17  1  0
 20 16  1  0
 21 20  1  0
 22 20  1  0
 23 25  1  0
 23 24  1  0
 26 25  1  0
 27 26  3  0
 28 27  1  0
 29 28  3  0
 30 32  1  1
 30 29  1  0
 31 30  1  0
 33 30  1  0
M  RAD  8   1   2   2   3   5   2   6   2   7   2  17   2  18   2  19   2
M  RAD  5  24   2  25   3  31   2  32   2  33   2
M  END
>  <vina_score>  (5) 
-6.1909999999999998

>  <pose_id>  (5) 
5

$$$$
