
     RDKit          3D

 23 24  0  0  0  0  0  0  0  0999 V2000
   15.9680   14.0210   12.6490 C   0  0  0  0  0  2  0  0  0  0  0  0
   16.5550   15.3440   12.4200 N   0  0  0  0  0  0  0  0  0  0  0  0
   16.1560   16.4910   13.2340 C   0  0  0  0  0  1  0  0  0  0  0  0
   17.6500   15.4900   11.5040 C   0  0  0  0  0  0  0  0  0  0  0  0
   17.4040   15.9850   10.2150 C   0  0  0  0  0  3  0  0  0  0  0  0
   18.9670   15.1410   11.8820 C   0  0  0  0  0  0  0  0  0  0  0  0
   18.4540   16.1600    9.3130 C   0  0  0  0  0  3  0  0  0  0  0  0
   20.0240   15.3330   10.9650 C   0  0  0  0  0  0  0  0  0  0  0  0
   19.2800   14.6730   13.2890 C   0  0  0  0  0  2  0  0  0  0  0  0
   19.7580   15.8380    9.6850 C   0  0  0  0  0  3  0  0  0  0  0  0
   21.3700   15.0130   11.3420 N   0  0  0  0  0  0  0  0  0  0  0  0
   20.4870   13.7270   13.3330 C   0  0  0  0  0  2  0  0  0  0  0  0
   21.6310   14.2900   12.5470 C   0  0  0  0  0  0  0  0  0  0  0  0
   22.8180   14.0700   12.9080 O   0  0  0  0  0  0  0  0  0  0  0  0
   22.1540   15.3070   10.7410 H   0  0  0  0  0  0  0  0  0  0  0  0
   15.4820   13.9160   14.0690 C   0  0  0  0  0  3  0  0  0  0  0  0
   15.7850   12.9040   14.8900 C   0  0  0  0  0  3  0  0  0  0  0  0
   16.5550   11.7590   14.4760 C   0  0  0  0  0  0  0  0  0  0  0  0
   17.1870   10.7930   14.1290 C   0  0  0  0  0  0  0  0  0  0  0  0
   17.9770    9.6230   13.7000 C   0  0  2  0  0  0  0  0  0  0  0  0
   17.1290    8.7640   12.7480 C   0  0  0  0  0  1  0  0  0  0  0  0
   18.3730    8.8020   14.9370 C   0  0  0  0  0  1  0  0  0  0  0  0
   19.2410   10.1130   12.9750 C   0  0  0  0  0  1  0  0  0  0  0  0
  1 16  1  0
  2  1  1  0
  2  3  1  0
  4  6  2  0
  4  2  1  0
  5  4  1  0
  6  9  1  0
  7 10  1  0
  7  5  2  0
  8 11  1  0
  8  6  1  0
  9 12  1  0
 10  8  2  0
 11 13  1  0
 13 14  2  0
 13 12  1  0
 15 11  1  0
 16 17  2  0
 18 17  1  0
 19 18  3  0
 20 19  1  0
 20 22  1  1
 21 20  1  0
 23 20  1  0
M  RAD  8   1   3   3   2   5   2   7   2   9   3  10   2  12   3  16   2
M  RAD  4  17   2  21   2  22   2  23   2
M  END
>  <vina_score>  (1) 
-6.6360000000000001

>  <pose_id>  (1) 
1

$$$$

     RDKit          3D

 23 24  0  0  0  0  0  0  0  0999 V2000
   21.8550   12.9920   12.4330 C   0  0  0  0  0  2  0  0  0  0  0  0
   21.2720   14.3170   12.6580 N   0  0  0  0  0  0  0  0  0  0  0  0
   21.4610   15.0120   13.9300 C   0  0  0  0  0  1  0  0  0  0  0  0
   20.6510   15.0170   11.5700 C   0  0  0  0  0  0  0  0  0  0  0  0
   21.4580   15.6460   10.6100 C   0  0  0  0  0  3  0  0  0  0  0  0
   19.2440   15.0830   11.4540 C   0  0  0  0  0  0  0  0  0  0  0  0
   20.8820   16.3130    9.5290 C   0  0  0  0  0  3  0  0  0  0  0  0
   18.6710   15.7520   10.3490 C   0  0  0  0  0  0  0  0  0  0  0  0
   18.3430   14.3550   12.4310 C   0  0  0  0  0  2  0  0  0  0  0  0
   19.4950   16.3650    9.3970 C   0  0  0  0  0  3  0  0  0  0  0  0
   17.2450   15.8020   10.2000 N   0  0  0  0  0  0  0  0  0  0  0  0
   16.9850   15.0500   12.6010 C   0  0  0  0  0  2  0  0  0  0  0  0
   16.3910   15.3860   11.2680 C   0  0  0  0  0  0  0  0  0  0  0  0
   15.1420   15.3690   11.1080 O   0  0  0  0  0  0  0  0  0  0  0  0
   16.8350   16.1400    9.3180 H   0  0  0  0  0  0  0  0  0  0  0  0
   23.1110   13.1170   11.6150 C   0  0  0  0  0  3  0  0  0  0  0  0
   24.2850   12.5760   11.9590 C   0  0  0  0  0  3  0  0  0  0  0  0
   24.4920   11.8710   13.1980 C   0  0  0  0  0  0  0  0  0  0  0  0
   24.6740   11.2920   14.2410 C   0  0  0  0  0  0  0  0  0  0  0  0
   24.9120   10.5980   15.5200 C   0  0  2  0  0  0  0  0  0  0  0  0
   24.9210    9.0800   15.2740 C   0  0  0  0  0  1  0  0  0  0  0  0
   23.7930   10.9630   16.5070 C   0  0  0  0  0  1  0  0  0  0  0  0
   26.2700   11.0430   16.0840 C   0  0  0  0  0  1  0  0  0  0  0  0
  1  2  1  0
  2  3  1  0
  4  2  1  0
  5  4  1  0
  6  4  2  0
  6  9  1  0
  7  5  2  0
  8  6  1  0
  9 12  1  0
 10  7  1  0
 10  8  2  0
 11  8  1  0
 11 13  1  0
 13 12  1  0
 14 13  2  0
 15 11  1  0
 16 17  2  0
 16  1  1  0
 17 18  1  0
 18 19  3  0
 19 20  1  0
 20 23  1  1
 20 22  1  0
 21 20  1  0
M  RAD  8   1   3   3   2   5   2   7   2   9   3  10   2  12   3  16   2
M  RAD  4  17   2  21   2  22   2  23   2
M  END
>  <vina_score>  (2) 
-6.5380000000000003

>  <pose_id>  (2) 
2

$$$$

     RDKit          3D

 23 24  0  0  0  0  0  0  0  0999 V2000
   14.5010    9.7300   19.4760 C   0  0  0  0  0  2  0  0  0  0  0  0
   15.0970    9.4110   20.7760 N   0  0  0  0  0  0  0  0  0  0  0  0
   14.3910    8.5620   21.7350 C   0  0  0  0  0  1  0  0  0  0  0  0
   16.4530    9.7910   21.0520 C   0  0  0  0  0  0  0  0  0  0  0  0
   16.7040   10.7940   22.0000 C   0  0  0  0  0  3  0  0  0  0  0  0
   17.5340    9.1720   20.3830 C   0  0  0  0  0  0  0  0  0  0  0  0
   18.0130   11.1660   22.3060 C   0  0  0  0  0  3  0  0  0  0  0  0
   18.8560    9.5490   20.7090 C   0  0  0  0  0  0  0  0  0  0  0  0
   17.3040    8.0360   19.4080 C   0  0  0  0  0  2  0  0  0  0  0  0
   19.0850   10.5470   21.6660 C   0  0  0  0  0  3  0  0  0  0  0  0
   19.9660    8.9110   20.0630 N   0  0  0  0  0  0  0  0  0  0  0  0
   18.3880    7.9710   18.3230 C   0  0  0  0  0  2  0  0  0  0  0  0
   19.7530    8.0630   18.9310 C   0  0  0  0  0  0  0  0  0  0  0  0
   20.7230    7.4520   18.4090 O   0  0  0  0  0  0  0  0  0  0  0  0
   20.9210    9.0630   20.4160 H   0  0  0  0  0  0  0  0  0  0  0  0
   13.9760   11.1390   19.4860 C   0  0  0  0  0  3  0  0  0  0  0  0
   14.5570   12.1590   18.8440 C   0  0  0  0  0  3  0  0  0  0  0  0
   15.8010   12.0300   18.1270 C   0  0  0  0  0  0  0  0  0  0  0  0
   16.8490   11.9300   17.5390 C   0  0  0  0  0  0  0  0  0  0  0  0
   18.1290   11.8280   16.8140 C   0  0  2  0  0  0  0  0  0  0  0  0
   18.0730   10.6240   15.8590 C   0  0  0  0  0  1  0  0  0  0  0  0
   19.2680   11.6400   17.8290 C   0  0  0  0  0  1  0  0  0  0  0  0
   18.3540   13.1200   16.0130 C   0  0  0  0  0  1  0  0  0  0  0  0
  1 16  1  0
  1  2  1  0
  2  4  1  0
  2  3  1  0
  4  5  1  0
  5  7  2  0
  6  8  1  0
  6  4  2  0
  8 10  2  0
  9  6  1  0
 10  7  1  0
 11 15  1  0
 11  8  1  0
 12 13  1  0
 12  9  1  0
 13 11  1  0
 14 13  2  0
 17 16  2  0
 18 17  1  0
 19 18  3  0
 20 19  1  0
 20 22  1  1
 21 20  1  0
 23 20  1  0
M  RAD  8   1   3   3   2   5   2   7   2   9   3  10   2  12   3  16   2
M  RAD  4  17   2  21   2  22   2  23   2
M  END
>  <vina_score>  (3) 
-6.5289999999999999

>  <pose_id>  (3) 
3

$$$$

     RDKit          3D

 23 24  0  0  0  0  0  0  0  0999 V2000
   18.3420    9.1650   17.7910 C   0  0  0  0  0  2  0  0  0  0  0  0
   18.1630    8.3940   19.0240 N   0  0  0  0  0  0  0  0  0  0  0  0
   19.1840    7.4460   19.4690 C   0  0  0  0  0  1  0  0  0  0  0  0
   17.0610    8.6870   19.8960 C   0  0  0  0  0  0  0  0  0  0  0  0
   15.8450    8.0140   19.7120 C   0  0  0  0  0  3  0  0  0  0  0  0
   17.1850    9.6420   20.9310 C   0  0  0  0  0  0  0  0  0  0  0  0
   14.7650    8.2610   20.5600 C   0  0  0  0  0  3  0  0  0  0  0  0
   16.0880    9.8760   21.7910 C   0  0  0  0  0  0  0  0  0  0  0  0
   18.5050   10.3340   21.2050 C   0  0  0  0  0  2  0  0  0  0  0  0
   14.8850    9.1860   21.5950 C   0  0  0  0  0  3  0  0  0  0  0  0
   16.2060   10.8180   22.8650 N   0  0  0  0  0  0  0  0  0  0  0  0
   18.3160   11.7320   21.8090 C   0  0  0  0  0  2  0  0  0  0  0  0
   17.3350   11.6910   22.9410 C   0  0  0  0  0  0  0  0  0  0  0  0
   17.4670   12.4700   23.9220 O   0  0  0  0  0  0  0  0  0  0  0  0
   15.4720   10.8670   23.5870 H   0  0  0  0  0  0  0  0  0  0  0  0
   19.6060    9.9750   17.8720 C   0  0  0  0  0  3  0  0  0  0  0  0
   19.6780   11.2800   17.5880 C   0  0  0  0  0  3  0  0  0  0  0  0
   18.5570   12.0410   17.0980 C   0  0  0  0  0  0  0  0  0  0  0  0
   17.6240   12.6770   16.6740 C   0  0  0  0  0  0  0  0  0  0  0  0
   16.4760   13.4580   16.1760 C   0  0  2  0  0  0  0  0  0  0  0  0
   15.8370   12.7150   14.9920 C   0  0  0  0  0  1  0  0  0  0  0  0
   16.9670   14.8420   15.7240 C   0  0  0  0  0  1  0  0  0  0  0  0
   15.4490   13.6140   17.3100 C   0  0  0  0  0  1  0  0  0  0  0  0
  1 16  1  0
  1  2  1  0
  2  3  1  0
  2  4  1  0
  4  6  2  0
  5  4  1  0
  5  7  2  0
  6  9  1  0
  6  8  1  0
  7 10  1  0
  8 11  1  0
  9 12  1  0
 10  8  2  0
 11 13  1  0
 11 15  1  0
 12 13  1  0
 13 14  2  0
 17 16  2  0
 18 17  1  0
 19 18  3  0
 20 19  1  0
 20 23  1  1
 21 20  1  0
 22 20  1  0
M  RAD  8   1   3   3   2   5   2   7   2   9   3  10   2  12   3  16   2
M  RAD  4  17   2  21   2  22   2  23   2
M  END
>  <vina_score>  (4) 
-6.4850000000000003

>  <pose_id>  (4) 
4

$$$$

     RDKit          3D

 23 24  0  0  0  0  0  0  0  0999 V2000
   22.2270   15.1350   11.7970 C   0  0  0  0  0  2  0  0  0  0  0  0
   23.0030   13.8930   11.7440 N   0  0  0  0  0  0  0  0  0  0  0  0
   23.7240   13.5120   10.5300 C   0  0  0  0  0  1  0  0  0  0  0  0
   23.2010   13.1240   12.9390 C   0  0  0  0  0  0  0  0  0  0  0  0
   24.4500   13.1550   13.5750 C   0  0  0  0  0  3  0  0  0  0  0  0
   22.1580   12.3370   13.4800 C   0  0  0  0  0  0  0  0  0  0  0  0
   24.6630   12.4360   14.7520 C   0  0  0  0  0  3  0  0  0  0  0  0
   22.3800   11.6220   14.6780 C   0  0  0  0  0  0  0  0  0  0  0  0
   20.7750   12.3370   12.8600 C   0  0  0  0  0  2  0  0  0  0  0  0
   23.6330   11.6740   15.3020 C   0  0  0  0  0  3  0  0  0  0  0  0
   21.3250   10.8440   15.2570 N   0  0  0  0  0  0  0  0  0  0  0  0
   20.0350   11.0120   13.0870 C   0  0  0  0  0  2  0  0  0  0  0  0
   20.1230   10.5950   14.5230 C   0  0  0  0  0  0  0  0  0  0  0  0
   19.1730    9.9680   15.0610 O   0  0  0  0  0  0  0  0  0  0  0  0
   21.4320   10.4620   16.2070 H   0  0  0  0  0  0  0  0  0  0  0  0
   21.8310   15.5500   10.4070 C   0  0  0  0  0  3  0  0  0  0  0  0
   20.5670   15.7560   10.0180 C   0  0  0  0  0  3  0  0  0  0  0  0
   19.4340   15.5280   10.8790 C   0  0  0  0  0  0  0  0  0  0  0  0
   18.4830   15.3250   11.5920 C   0  0  0  0  0  0  0  0  0  0  0  0
   17.3060   15.0740   12.4460 C   0  0  2  0  0  0  0  0  0  0  0  0
   17.2450   16.1470   13.5450 C   0  0  0  0  0  1  0  0  0  0  0  0
   17.4320   13.6800   13.0790 C   0  0  0  0  0  1  0  0  0  0  0  0
   16.0380   15.1410   11.5800 C   0  0  0  0  0  1  0  0  0  0  0  0
  2  1  1  0
  2  4  1  0
  3  2  1  0
  4  6  2  0
  4  5  1  0
  5  7  2  0
  6  8  1  0
  7 10  1  0
  8 11  1  0
  8 10  2  0
  9 12  1  0
  9  6  1  0
 11 15  1  0
 12 13  1  0
 13 14  2  0
 13 11  1  0
 16  1  1  0
 17 16  2  0
 17 18  1  0
 18 19  3  0
 19 20  1  0
 20 22  1  1
 20 21  1  0
 23 20  1  0
M  RAD  8   1   3   3   2   5   2   7   2   9   3  10   2  12   3  16   2
M  RAD  4  17   2  21   2  22   2  23   2
M  END
>  <vina_score>  (5) 
-6.4409999999999998

>  <pose_id>  (5) 
5

$$$$
