
     RDKit          3D

 24 25  0  0  0  0  0  0  0  0999 V2000
   15.8640   13.3440   16.9840 C   0  0  0  0  0  0  0  0  0  0  0  0
   15.4110   12.4180   17.9470 C   0  0  0  0  0  0  0  0  0  0  0  0
   16.2500   14.1390   16.1640 C   0  0  0  0  0  0  0  0  0  0  0  0
   16.7210   15.1090   15.1600 C   0  0  2  0  0  0  0  0  0  0  0  0
   15.6580   16.2260   15.0670 C   0  0  0  0  0  1  0  0  0  0  0  0
   16.8460   14.3580   13.8180 C   0  0  0  0  0  1  0  0  0  0  0  0
   17.9910   15.5690   15.6170 O   0  0  0  0  0  0  0  0  0  0  0  0
   19.0900   14.9510   14.9750 C   0  0  0  0  0  1  0  0  0  0  0  0
   15.0200   11.6330   18.7730 C   0  0  0  0  0  0  0  0  0  0  0  0
   14.5570   10.6800   19.7860 C   0  0  0  0  0  2  0  0  0  0  0  0
   15.6810    9.8780   20.2760 N   0  0  0  0  0  0  0  0  0  0  0  0
   15.8250    8.4740   19.8920 C   0  0  0  0  0  1  0  0  0  0  0  0
   16.6060   10.4420   21.2160 C   0  0  0  0  0  0  0  0  0  0  0  0
   16.1360   10.8520   22.4700 C   0  0  0  0  0  3  0  0  0  0  0  0
   17.9720   10.6080   20.8880 C   0  0  0  0  0  0  0  0  0  0  0  0
   17.0000   11.4480   23.3890 C   0  0  0  0  0  3  0  0  0  0  0  0
   18.8350   11.2270   21.8200 C   0  0  0  0  0  0  0  0  0  0  0  0
   18.5010   10.2490   19.5140 C   0  0  0  0  0  2  0  0  0  0  0  0
   18.3420   11.6420   23.0640 C   0  0  0  0  0  3  0  0  0  0  0  0
   20.2180   11.4310   21.4960 N   0  0  0  0  0  0  0  0  0  0  0  0
   19.9780    9.8350   19.5460 C   0  0  0  0  0  2  0  0  0  0  0  0
   20.7880   10.8160   20.3380 C   0  0  0  0  0  0  0  0  0  0  0  0
   21.9860   11.0470   20.0260 O   0  0  0  0  0  0  0  0  0  0  0  0
   20.8040   12.0240   22.1010 H   0  0  0  0  0  0  0  0  0  0  0  0
  1  2  1  0
  2  9  3  0
  3  1  3  0
  4  7  1  0
  4  3  1  0
  4  5  1  6
  6  4  1  0
  8  7  1  0
  9 10  1  0
 10 11  1  0
 11 13  1  0
 12 11  1  0
 13 14  1  0
 14 16  2  0
 15 13  2  0
 15 17  1  0
 17 19  2  0
 18 21  1  0
 18 15  1  0
 19 16  1  0
 20 17  1  0
 20 24  1  0
 21 22  1  0
 22 20  1  0
 23 22  2  0
M  RAD  8   5   2   6   2   8   2  10   3  12   2  14   2  16   2  18   3
M  RAD  2  19   2  21   3
M  END
>  <vina_score>  (1) 
-7.2519999999999998

>  <pose_id>  (1) 
1

$$$$

     RDKit          3D

 24 25  0  0  0  0  0  0  0  0999 V2000
   16.9570   13.0290   16.6800 C   0  0  0  0  0  0  0  0  0  0  0  0
   17.4160   11.7310   16.9860 C   0  0  0  0  0  0  0  0  0  0  0  0
   16.5600   14.1380   16.4220 C   0  0  0  0  0  0  0  0  0  0  0  0
   16.0750   15.4920   16.1050 C   0  0  2  0  0  0  0  0  0  0  0  0
   15.0590   15.8850   17.2000 C   0  0  0  0  0  1  0  0  0  0  0  0
   15.3920   15.4240   14.7230 C   0  0  0  0  0  1  0  0  0  0  0  0
   17.2290   16.3300   16.0730 O   0  0  0  0  0  0  0  0  0  0  0  0
   18.0660   16.1110   14.9540 C   0  0  0  0  0  1  0  0  0  0  0  0
   17.8020   10.6210   17.2510 C   0  0  0  0  0  0  0  0  0  0  0  0
   18.2640    9.2710   17.5860 C   0  0  0  0  0  2  0  0  0  0  0  0
   18.4560    9.1470   19.0340 N   0  0  0  0  0  0  0  0  0  0  0  0
   19.7890    8.9390   19.5990 C   0  0  0  0  0  1  0  0  0  0  0  0
   17.3200    9.1410   19.9090 C   0  0  0  0  0  0  0  0  0  0  0  0
   16.2750    8.2420   19.6570 C   0  0  0  0  0  3  0  0  0  0  0  0
   17.2310   10.0360   21.0010 C   0  0  0  0  0  0  0  0  0  0  0  0
   15.1340    8.2420   20.4610 C   0  0  0  0  0  3  0  0  0  0  0  0
   16.0640   10.0380   21.7980 C   0  0  0  0  0  0  0  0  0  0  0  0
   18.3040   11.0740   21.2570 C   0  0  0  0  0  2  0  0  0  0  0  0
   15.0250    9.1400   21.5220 C   0  0  0  0  0  3  0  0  0  0  0  0
   15.9410   10.9580   22.8920 N   0  0  0  0  0  0  0  0  0  0  0  0
   18.4220   11.4400   22.7420 C   0  0  0  0  0  2  0  0  0  0  0  0
   17.0720   11.7170   23.3300 C   0  0  0  0  0  0  0  0  0  0  0  0
   16.9440   12.5660   24.2510 O   0  0  0  0  0  0  0  0  0  0  0  0
   15.0340   11.0720   23.3660 H   0  0  0  0  0  0  0  0  0  0  0  0
  1  2  1  0
  2  9  3  0
  3  1  3  0
  4  3  1  0
  4  5  1  1
  6  4  1  0
  7  4  1  0
  8  7  1  0
  9 10  1  0
 10 11  1  0
 11 12  1  0
 11 13  1  0
 13 15  2  0
 14 13  1  0
 14 16  2  0
 15 18  1  0
 15 17  1  0
 16 19  1  0
 17 20  1  0
 18 21  1  0
 19 17  2  0
 20 22  1  0
 20 24  1  0
 21 22  1  0
 22 23  2  0
M  RAD  8   5   2   6   2   8   2  10   3  12   2  14   2  16   2  18   3
M  RAD  2  19   2  21   3
M  END
>  <vina_score>  (2) 
-7.2320000000000002

>  <pose_id>  (2) 
2

$$$$

     RDKit          3D

 24 25  0  0  0  0  0  0  0  0999 V2000
   22.1320   10.6750   16.2280 C   0  0  0  0  0  0  0  0  0  0  0  0
   20.8390   10.5030   16.7640 C   0  0  0  0  0  0  0  0  0  0  0  0
   23.2360   10.8220   15.7660 C   0  0  0  0  0  0  0  0  0  0  0  0
   24.5840   11.0000   15.1990 C   0  0  2  0  0  0  0  0  0  0  0  0
   24.8850   12.5160   15.1990 C   0  0  0  0  0  1  0  0  0  0  0  0
   24.5550   10.4470   13.7590 C   0  0  0  0  0  1  0  0  0  0  0  0
   25.4660   10.2460   16.0270 O   0  0  0  0  0  0  0  0  0  0  0  0
   25.6040    8.8930   15.6370 C   0  0  0  0  0  1  0  0  0  0  0  0
   19.7310   10.3530   17.2140 C   0  0  0  0  0  0  0  0  0  0  0  0
   18.3890   10.1710   17.7760 C   0  0  0  0  0  2  0  0  0  0  0  0
   18.4510    9.3150   18.9640 N   0  0  0  0  0  0  0  0  0  0  0  0
   19.5880    8.4240   19.1890 C   0  0  0  0  0  1  0  0  0  0  0  0
   17.3450    9.2780   19.8770 C   0  0  0  0  0  0  0  0  0  0  0  0
   16.2880    8.3940   19.6280 C   0  0  0  0  0  3  0  0  0  0  0  0
   17.2980   10.1310   21.0050 C   0  0  0  0  0  0  0  0  0  0  0  0
   15.1760    8.3660   20.4700 C   0  0  0  0  0  3  0  0  0  0  0  0
   16.1600   10.1060   21.8420 C   0  0  0  0  0  0  0  0  0  0  0  0
   18.3850   11.1550   21.2630 C   0  0  0  0  0  2  0  0  0  0  0  0
   15.1080    9.2230   21.5680 C   0  0  0  0  0  3  0  0  0  0  0  0
   16.0800   10.9830   22.9750 N   0  0  0  0  0  0  0  0  0  0  0  0
   18.5560   11.4620   22.7560 C   0  0  0  0  0  2  0  0  0  0  0  0
   17.2290   11.7210   23.4010 C   0  0  0  0  0  0  0  0  0  0  0  0
   17.1370   12.5340   24.3580 O   0  0  0  0  0  0  0  0  0  0  0  0
   15.1900   11.0820   23.4840 H   0  0  0  0  0  0  0  0  0  0  0  0
  1  2  1  0
  2  9  3  0
  3  1  3  0
  4  5  1  6
  4  3  1  0
  4  7  1  0
  6  4  1  0
  8  7  1  0
  9 10  1  0
 10 11  1  0
 11 12  1  0
 11 13  1  0
 13 15  2  0
 14 13  1  0
 14 16  2  0
 15 18  1  0
 15 17  1  0
 16 19  1  0
 17 20  1  0
 18 21  1  0
 19 17  2  0
 20 22  1  0
 20 24  1  0
 21 22  1  0
 22 23  2  0
M  RAD  8   5   2   6   2   8   2  10   3  12   2  14   2  16   2  18   3
M  RAD  2  19   2  21   3
M  END
>  <vina_score>  (3) 
-6.7750000000000004

>  <pose_id>  (3) 
3

$$$$

     RDKit          3D

 24 25  0  0  0  0  0  0  0  0999 V2000
   18.7590   12.0670   18.0440 C   0  0  0  0  0  0  0  0  0  0  0  0
   18.0160   12.7270   17.0440 C   0  0  0  0  0  0  0  0  0  0  0  0
   19.3940   11.5060   18.9020 C   0  0  0  0  0  0  0  0  0  0  0  0
   20.1690   10.8190   19.9510 C   0  0  2  0  0  0  0  0  0  0  0  0
   21.5940   10.5960   19.3970 C   0  0  0  0  0  1  0  0  0  0  0  0
   19.4710    9.4710   20.2290 C   0  0  0  0  0  1  0  0  0  0  0  0
   20.1300   11.6700   21.0950 O   0  0  0  0  0  0  0  0  0  0  0  0
   19.1900   11.2720   22.0740 C   0  0  0  0  0  1  0  0  0  0  0  0
   17.3810   13.2980   16.1940 C   0  0  0  0  0  0  0  0  0  0  0  0
   16.6090   13.9810   15.1510 C   0  0  0  0  0  2  0  0  0  0  0  0
   16.9170   13.4080   13.8380 N   0  0  0  0  0  0  0  0  0  0  0  0
   16.7530   11.9770   13.5860 C   0  0  0  0  0  1  0  0  0  0  0  0
   17.4690   14.2390   12.8070 C   0  0  0  0  0  0  0  0  0  0  0  0
   16.6030   14.8630   11.9010 C   0  0  0  0  0  3  0  0  0  0  0  0
   18.8670   14.4170   12.6810 C   0  0  0  0  0  0  0  0  0  0  0  0
   17.1100   15.6400   10.8580 C   0  0  0  0  0  3  0  0  0  0  0  0
   19.3700   15.1920   11.6120 C   0  0  0  0  0  0  0  0  0  0  0  0
   19.8380   13.6950   13.5940 C   0  0  0  0  0  2  0  0  0  0  0  0
   18.4880   15.7980   10.7090 C   0  0  0  0  0  3  0  0  0  0  0  0
   20.7860   15.3620   11.4500 N   0  0  0  0  0  0  0  0  0  0  0  0
   21.1430   14.4760   13.7940 C   0  0  0  0  0  2  0  0  0  0  0  0
   21.6870   14.9480   12.4810 C   0  0  0  0  0  0  0  0  0  0  0  0
   22.9310   15.0450   12.3080 O   0  0  0  0  0  0  0  0  0  0  0  0
   21.1560   15.7840   10.5860 H   0  0  0  0  0  0  0  0  0  0  0  0
  1  3  3  0
  2  1  1  0
  3  4  1  0
  4  6  1  1
  4  7  1  0
  5  4  1  0
  7  8  1  0
  9  2  3  0
 10  9  1  0
 11 10  1  0
 12 11  1  0
 13 11  1  0
 14 13  1  0
 15 13  2  0
 15 18  1  0
 16 14  2  0
 17 15  1  0
 18 21  1  0
 19 16  1  0
 19 17  2  0
 20 17  1  0
 20 22  1  0
 22 21  1  0
 23 22  2  0
 24 20  1  0
M  RAD  8   5   2   6   2   8   2  10   3  12   2  14   2  16   2  18   3
M  RAD  2  19   2  21   3
M  END
>  <vina_score>  (4) 
-6.5899999999999999

>  <pose_id>  (4) 
4

$$$$

     RDKit          3D

 24 25  0  0  0  0  0  0  0  0999 V2000
   16.0070   12.6680   17.2740 C   0  0  0  0  0  0  0  0  0  0  0  0
   15.9650   13.6140   16.2280 C   0  0  0  0  0  0  0  0  0  0  0  0
   16.0470   11.8590   18.1670 C   0  0  0  0  0  0  0  0  0  0  0  0
   16.0970   10.8710   19.2590 C   0  0  2  0  0  0  0  0  0  0  0  0
   14.7210   10.8920   19.9610 C   0  0  0  0  0  1  0  0  0  0  0  0
   17.2130   11.3130   20.2280 C   0  0  0  0  0  1  0  0  0  0  0  0
   16.4050    9.6200   18.6490 O   0  0  0  0  0  0  0  0  0  0  0  0
   16.9430    8.6630   19.5420 C   0  0  0  0  0  1  0  0  0  0  0  0
   15.9370   14.4190   15.3320 C   0  0  0  0  0  0  0  0  0  0  0  0
   15.8950   15.3890   14.2350 C   0  0  0  0  0  2  0  0  0  0  0  0
   15.8870   14.6930   12.9450 N   0  0  0  0  0  0  0  0  0  0  0  0
   15.1670   13.4310   12.7780 C   0  0  0  0  0  1  0  0  0  0  0  0
   16.6640   15.2020   11.8520 C   0  0  0  0  0  0  0  0  0  0  0  0
   16.0090   15.8480   10.7960 C   0  0  0  0  0  3  0  0  0  0  0  0
   18.0690   15.0430   11.8160 C   0  0  0  0  0  0  0  0  0  0  0  0
   16.7300   16.3140    9.6960 C   0  0  0  0  0  3  0  0  0  0  0  0
   18.7870   15.5030   10.6900 C   0  0  0  0  0  0  0  0  0  0  0  0
   18.8030   14.2810   12.9010 C   0  0  0  0  0  2  0  0  0  0  0  0
   18.1120   16.1360    9.6380 C   0  0  0  0  0  3  0  0  0  0  0  0
   20.2090   15.3260   10.6210 N   0  0  0  0  0  0  0  0  0  0  0  0
   20.2430   14.7750   13.0910 C   0  0  0  0  0  2  0  0  0  0  0  0
   20.9420   14.8960   11.7710 C   0  0  0  0  0  0  0  0  0  0  0  0
   22.1800   14.6840   11.6880 O   0  0  0  0  0  0  0  0  0  0  0  0
   20.7070   15.5110    9.7370 H   0  0  0  0  0  0  0  0  0  0  0  0
  1  3  3  0
  2  1  1  0
  3  4  1  0
  4  5  1  1
  4  6  1  0
  7  4  1  0
  7  8  1  0
  9  2  3  0
 10  9  1  0
 11 10  1  0
 12 11  1  0
 13 11  1  0
 14 13  1  0
 15 13  2  0
 15 18  1  0
 16 14  2  0
 17 15  1  0
 18 21  1  0
 19 16  1  0
 19 17  2  0
 20 17  1  0
 20 22  1  0
 22 21  1  0
 23 22  2  0
 24 20  1  0
M  RAD  8   5   2   6   2   8   2  10   3  12   2  14   2  16   2  18   3
M  RAD  2  19   2  21   3
M  END
>  <vina_score>  (5) 
-6.5810000000000004

>  <pose_id>  (5) 
5

$$$$
