
     RDKit          3D

 21 22  0  0  0  0  0  0  0  0999 V2000
   15.8130   13.1390   17.0060 C   0  0  0  0  0  0  0  0  0  0  0  0
   15.7240   12.0890   17.9840 C   0  0  0  0  0  3  0  0  0  0  0  0
   14.6130   11.9200   18.7020 C   0  0  0  0  0  3  0  0  0  0  0  0
   15.8860   14.0200   16.1860 C   0  0  0  0  0  0  0  0  0  0  0  0
   15.9750   15.0980   15.1840 C   0  0  2  0  0  0  0  0  0  0  0  0
   17.4350   15.5660   15.0780 C   0  0  0  0  0  1  0  0  0  0  0  0
   15.0790   16.2670   15.6250 C   0  0  0  0  0  1  0  0  0  0  0  0
   15.4980   14.5590   13.8250 C   0  0  0  0  0  1  0  0  0  0  0  0
   14.5090   10.8300   19.7260 C   0  0  0  0  0  2  0  0  0  0  0  0
   15.8140   10.2030   19.9380 N   0  0  0  0  0  0  0  0  0  0  0  0
   16.0930    9.4250   19.3250 H   0  0  0  0  0  0  0  0  0  0  0  0
   16.7220   10.6310   20.9690 C   0  0  0  0  0  0  0  0  0  0  0  0
   16.2470   10.8600   22.2740 C   0  0  0  0  0  3  0  0  0  0  0  0
   18.0920   10.8630   20.6860 C   0  0  0  0  0  0  0  0  0  0  0  0
   17.1020   11.3200   23.2760 C   0  0  0  0  0  3  0  0  0  0  0  0
   18.9470   11.3370   21.7140 C   0  0  0  0  0  0  0  0  0  0  0  0
   18.6540   10.6140   19.4190 C   0  0  0  0  0  3  0  0  0  0  0  0
   18.4470   11.5630   22.9980 C   0  0  0  0  0  3  0  0  0  0  0  0
   20.2640   11.5650   21.4560 N   0  0  0  0  0  0  0  0  0  0  0  0
   20.0090   10.8600   19.1930 C   0  0  0  0  0  3  0  0  0  0  0  0
   20.8040   11.3440   20.2300 C   0  0  0  0  0  3  0  0  0  0  0  0
  1  2  1  0
  2  3  2  0
  3  9  1  0
  4  1  3  0
  5  7  1  1
  5  4  1  0
  6  5  1  0
  8  5  1  0
  9 10  1  0
 10 12  1  0
 11 10  1  0
 12 13  1  0
 13 15  2  0
 14 12  2  0
 14 16  1  0
 16 18  2  0
 17 14  1  0
 18 15  1  0
 19 16  1  0
 20 17  2  0
 20 21  1  0
 21 19  2  0
M  RAD  8   2   2   3   2   6   2   7   2   8   2   9   3  13   2  15   2
M  RAD  4  17   2  18   2  20   2  21   2
M  END
>  <vina_score>  (1) 
-6.9580000000000002

>  <pose_id>  (1) 
1

$$$$

     RDKit          3D

 21 22  0  0  0  0  0  0  0  0999 V2000
   17.7840   13.0390   16.6150 C   0  0  0  0  0  0  0  0  0  0  0  0
   18.6550   12.0100   17.1160 C   0  0  0  0  0  3  0  0  0  0  0  0
   19.0330   12.0030   18.3940 C   0  0  0  0  0  3  0  0  0  0  0  0
   17.0530   13.9010   16.1960 C   0  0  0  0  0  0  0  0  0  0  0  0
   16.1570   14.9550   15.6830 C   0  0  2  0  0  0  0  0  0  0  0  0
   15.1970   15.3870   16.8020 C   0  0  0  0  0  1  0  0  0  0  0  0
   15.3590   14.3980   14.4930 C   0  0  0  0  0  1  0  0  0  0  0  0
   17.0050   16.1540   15.2280 C   0  0  0  0  0  1  0  0  0  0  0  0
   19.9430   10.9380   18.9290 C   0  0  0  0  0  2  0  0  0  0  0  0
   19.2110   10.0470   19.8280 N   0  0  0  0  0  0  0  0  0  0  0  0
   19.2710    9.0310   19.6740 H   0  0  0  0  0  0  0  0  0  0  0  0
   18.4110   10.5330   20.9220 C   0  0  0  0  0  0  0  0  0  0  0  0
   19.0330   11.1000   22.0500 C   0  0  0  0  0  3  0  0  0  0  0  0
   16.9980   10.4180   20.9010 C   0  0  0  0  0  0  0  0  0  0  0  0
   18.2780   11.5340   23.1400 C   0  0  0  0  0  3  0  0  0  0  0  0
   16.2450   10.8580   22.0200 C   0  0  0  0  0  0  0  0  0  0  0  0
   16.2980    9.9050   19.7920 C   0  0  0  0  0  3  0  0  0  0  0  0
   16.8900   11.4100   23.1290 C   0  0  0  0  0  3  0  0  0  0  0  0
   14.8880   10.7530   22.0140 N   0  0  0  0  0  0  0  0  0  0  0  0
   14.9060    9.8130   19.8230 C   0  0  0  0  0  3  0  0  0  0  0  0
   14.2120   10.2410   20.9540 C   0  0  0  0  0  3  0  0  0  0  0  0
  1  2  1  0
  2  3  2  0
  3  9  1  0
  4  1  3  0
  5  4  1  0
  5  6  1  1
  7  5  1  0
  8  5  1  0
  9 10  1  0
 10 12  1  0
 11 10  1  0
 12 13  1  0
 13 15  2  0
 14 12  2  0
 14 16  1  0
 16 18  2  0
 17 20  2  0
 17 14  1  0
 18 15  1  0
 19 16  1  0
 20 21  1  0
 21 19  2  0
M  RAD  8   2   2   3   2   6   2   7   2   8   2   9   3  13   2  15   2
M  RAD  4  17   2  18   2  20   2  21   2
M  END
>  <vina_score>  (2) 
-6.8620000000000001

>  <pose_id>  (2) 
2

$$$$

     RDKit          3D

 21 22  0  0  0  0  0  0  0  0999 V2000
   19.3850   15.1820   11.4480 C   0  0  0  0  0  0  0  0  0  0  0  0
   17.9660   15.3990   11.3710 C   0  0  0  0  0  3  0  0  0  0  0  0
   17.3410   16.1350   12.2890 C   0  0  0  0  0  3  0  0  0  0  0  0
   20.5750   15.0010   11.5130 C   0  0  0  0  0  0  0  0  0  0  0  0
   22.0320   14.7800   11.5900 C   0  0  2  0  0  0  0  0  0  0  0  0
   22.6330   15.7550   12.6160 C   0  0  0  0  0  1  0  0  0  0  0  0
   22.6510   15.0280   10.2050 C   0  0  0  0  0  1  0  0  0  0  0  0
   22.2960   13.3300   12.0290 C   0  0  0  0  0  1  0  0  0  0  0  0
   15.8600   16.3670   12.2220 C   0  0  0  0  0  2  0  0  0  0  0  0
   15.1390   15.2250   12.7820 N   0  0  0  0  0  0  0  0  0  0  0  0
   14.4200   14.7640   12.2080 H   0  0  0  0  0  0  0  0  0  0  0  0
   15.3950   14.7190   14.1060 C   0  0  0  0  0  0  0  0  0  0  0  0
   15.0820   15.5040   15.2310 C   0  0  0  0  0  3  0  0  0  0  0  0
   15.9950   13.4490   14.2990 C   0  0  0  0  0  0  0  0  0  0  0  0
   15.3660   15.0510   16.5200 C   0  0  0  0  0  3  0  0  0  0  0  0
   16.2830   13.0050   15.6150 C   0  0  0  0  0  0  0  0  0  0  0  0
   16.2960   12.5840   13.2280 C   0  0  0  0  0  3  0  0  0  0  0  0
   15.9690   13.8090   16.7130 C   0  0  0  0  0  3  0  0  0  0  0  0
   16.8590   11.7890   15.8160 N   0  0  0  0  0  0  0  0  0  0  0  0
   16.8870   11.3440   13.4740 C   0  0  0  0  0  3  0  0  0  0  0  0
   17.1680   10.9620   14.7840 C   0  0  0  0  0  3  0  0  0  0  0  0
  1  4  3  0
  2  1  1  0
  2  3  2  0
  4  5  1  0
  5  8  1  1
  5  6  1  0
  7  5  1  0
  9  3  1  0
  9 10  1  0
 10 12  1  0
 11 10  1  0
 12 14  2  0
 12 13  1  0
 13 15  2  0
 14 16  1  0
 15 18  1  0
 16 19  1  0
 16 18  2  0
 17 20  2  0
 17 14  1  0
 20 21  1  0
 21 19  2  0
M  RAD  8   2   2   3   2   6   2   7   2   8   2   9   3  13   2  15   2
M  RAD  4  17   2  18   2  20   2  21   2
M  END
>  <vina_score>  (3) 
-6.6539999999999999

>  <pose_id>  (3) 
3

$$$$

     RDKit          3D

 21 22  0  0  0  0  0  0  0  0999 V2000
   23.1590   10.2930   17.8310 C   0  0  0  0  0  0  0  0  0  0  0  0
   22.3110    9.9620   18.9440 C   0  0  0  0  0  3  0  0  0  0  0  0
   21.9180   10.9030   19.8030 C   0  0  0  0  0  3  0  0  0  0  0  0
   23.8700   10.5720   16.8980 C   0  0  0  0  0  0  0  0  0  0  0  0
   24.7390   10.9150   15.7570 C   0  0  2  0  0  0  0  0  0  0  0  0
   26.2050   10.6730   16.1520 C   0  0  0  0  0  1  0  0  0  0  0  0
   24.5300   12.3940   15.3940 C   0  0  0  0  0  1  0  0  0  0  0  0
   24.3670   10.0250   14.5590 C   0  0  0  0  0  1  0  0  0  0  0  0
   21.0360   10.5700   20.9690 C   0  0  0  0  0  2  0  0  0  0  0  0
   20.1440   11.6910   21.2690 N   0  0  0  0  0  0  0  0  0  0  0  0
   20.4960   12.6500   21.1430 H   0  0  0  0  0  0  0  0  0  0  0  0
   18.7940   11.5060   21.7340 C   0  0  0  0  0  0  0  0  0  0  0  0
   18.5090   11.5830   23.1100 C   0  0  0  0  0  3  0  0  0  0  0  0
   17.7440   11.2090   20.8290 C   0  0  0  0  0  0  0  0  0  0  0  0
   17.2150   11.3600   23.5850 C   0  0  0  0  0  3  0  0  0  0  0  0
   16.4360   10.9790   21.3280 C   0  0  0  0  0  0  0  0  0  0  0  0
   17.9390   11.1600   19.4350 C   0  0  0  0  0  3  0  0  0  0  0  0
   16.1830   11.0540   22.7000 C   0  0  0  0  0  3  0  0  0  0  0  0
   15.4180   10.6920   20.4720 N   0  0  0  0  0  0  0  0  0  0  0  0
   16.8700   10.8630   18.5880 C   0  0  0  0  0  3  0  0  0  0  0  0
   15.6080   10.6250   19.1290 C   0  0  0  0  0  3  0  0  0  0  0  0
  1  2  1  0
  2  3  2  0
  3  9  1  0
  4  1  3  0
  5  6  1  1
  5  4  1  0
  7  5  1  0
  8  5  1  0
  9 10  1  0
 10 12  1  0
 11 10  1  0
 12 13  1  0
 13 15  2  0
 14 16  1  0
 14 12  2  0
 16 18  2  0
 17 14  1  0
 18 15  1  0
 19 16  1  0
 20 21  1  0
 20 17  2  0
 21 19  2  0
M  RAD  8   2   2   3   2   6   2   7   2   8   2   9   3  13   2  15   2
M  RAD  4  17   2  18   2  20   2  21   2
M  END
>  <vina_score>  (4) 
-6.569

>  <pose_id>  (4) 
4

$$$$

     RDKit          3D

 21 22  0  0  0  0  0  0  0  0999 V2000
   16.5560   12.8210   16.2780 C   0  0  0  0  0  0  0  0  0  0  0  0
   15.9780   13.5870   15.2080 C   0  0  0  0  0  3  0  0  0  0  0  0
   15.6070   12.9960   14.0720 C   0  0  0  0  0  3  0  0  0  0  0  0
   17.0400   12.1770   17.1750 C   0  0  0  0  0  0  0  0  0  0  0  0
   17.6330   11.3880   18.2720 C   0  0  2  0  0  0  0  0  0  0  0  0
   18.9300   12.0700   18.7360 C   0  0  0  0  0  1  0  0  0  0  0  0
   17.9380    9.9710   17.7610 C   0  0  0  0  0  1  0  0  0  0  0  0
   16.6320   11.3200   19.4370 C   0  0  0  0  0  1  0  0  0  0  0  0
   15.0050   13.7840   12.9470 C   0  0  0  0  0  2  0  0  0  0  0  0
   15.6430   15.0970   12.8460 N   0  0  0  0  0  0  0  0  0  0  0  0
   15.5520   15.7520   13.6350 H   0  0  0  0  0  0  0  0  0  0  0  0
   16.3920   15.5090   11.6880 C   0  0  0  0  0  0  0  0  0  0  0  0
   15.7240   16.0570   10.5770 C   0  0  0  0  0  3  0  0  0  0  0  0
   17.7980   15.3390   11.6300 C   0  0  0  0  0  0  0  0  0  0  0  0
   16.4270   16.4190    9.4270 C   0  0  0  0  0  3  0  0  0  0  0  0
   18.4980   15.7060   10.4520 C   0  0  0  0  0  0  0  0  0  0  0  0
   18.5450   14.8410   12.7150 C   0  0  0  0  0  3  0  0  0  0  0  0
   17.8080   16.2400    9.3610 C   0  0  0  0  0  3  0  0  0  0  0  0
   19.8480   15.5480   10.3810 N   0  0  0  0  0  0  0  0  0  0  0  0
   19.9290   14.6930   12.6060 C   0  0  0  0  0  3  0  0  0  0  0  0
   20.5680   15.0500   11.4190 C   0  0  0  0  0  3  0  0  0  0  0  0
  1  4  3  0
  2  1  1  0
  3  2  2  0
  4  5  1  0
  5  6  1  1
  5  8  1  0
  7  5  1  0
  9  3  1  0
 10  9  1  0
 10 11  1  0
 12 10  1  0
 13 12  1  0
 14 12  2  0
 14 17  1  0
 15 13  2  0
 16 14  1  0
 18 15  1  0
 18 16  2  0
 19 16  1  0
 19 21  2  0
 20 17  2  0
 21 20  1  0
M  RAD  8   2   2   3   2   6   2   7   2   8   2   9   3  13   2  15   2
M  RAD  4  17   2  18   2  20   2  21   2
M  END
>  <vina_score>  (5) 
-6.5270000000000001

>  <pose_id>  (5) 
5

$$$$
