
     RDKit          3D

 29 31  0  0  0  0  0  0  0  0999 V2000
   19.8970   12.6310   13.0620 C   0  0  0  0  0  2  0  0  0  0  0  0
   20.2900   12.2430   14.4560 C   0  0  0  0  0  3  0  0  0  0  0  0
   19.8380   11.2720   16.6090 C   0  0  0  0  0  0  0  0  0  0  0  0
   19.4110   11.7230   15.3130 C   0  0  0  0  0  3  0  0  0  0  0  0
   20.2020   10.8820   17.6890 C   0  0  0  0  0  0  0  0  0  0  0  0
   20.6410   10.3950   19.0110 C   0  0  1  0  0  0  0  0  0  0  0  0
   20.3430   11.4730   20.0660 C   0  0  0  0  0  1  0  0  0  0  0  0
   19.8720    9.1060   19.3470 C   0  0  0  0  0  1  0  0  0  0  0  0
   22.1500   10.1090   18.9640 C   0  0  0  0  0  1  0  0  0  0  0  0
   20.0960   14.0700   12.8670 N   0  0  0  0  0  0  0  0  0  0  0  0
   21.3590   14.7120   13.2550 C   0  0  0  0  0  2  0  0  0  0  0  0
   22.4990   14.1970   12.4150 C   0  0  0  0  0  0  0  0  0  0  0  0
   23.4490   13.3240   12.9740 C   0  0  0  0  0  3  0  0  0  0  0  0
   22.5870   14.5300   11.0540 C   0  0  0  0  0  3  0  0  0  0  0  0
   24.4740   12.8000   12.1810 C   0  0  0  0  0  3  0  0  0  0  0  0
   23.6130   14.0010   10.2640 C   0  0  0  0  0  3  0  0  0  0  0  0
   24.5560   13.1380   10.8270 C   0  0  0  0  0  3  0  0  0  0  0  0
   19.0290   14.8580   12.3130 C   0  0  0  0  0  0  0  0  0  0  0  0
   19.0890   15.2370   10.9650 C   0  0  0  0  0  3  0  0  0  0  0  0
   17.9200   15.2390   13.1010 C   0  0  0  0  0  0  0  0  0  0  0  0
   18.0450   15.9590   10.3860 C   0  0  0  0  0  3  0  0  0  0  0  0
   16.8640   15.9630   12.5040 C   0  0  0  0  0  0  0  0  0  0  0  0
   17.7880   14.7920   14.5430 C   0  0  0  0  0  2  0  0  0  0  0  0
   16.9330   16.3160   11.1490 C   0  0  0  0  0  3  0  0  0  0  0  0
   15.7240   16.3490   13.2860 N   0  0  0  0  0  0  0  0  0  0  0  0
   17.0150   15.8060   15.3950 C   0  0  0  0  0  2  0  0  0  0  0  0
   15.7470   16.2180   14.7100 C   0  0  0  0  0  0  0  0  0  0  0  0
   14.7270   16.5150   15.3880 O   0  0  0  0  0  0  0  0  0  0  0  0
   14.8850   16.7220   12.8190 H   0  0  0  0  0  0  0  0  0  0  0  0
  1  2  1  0
  2  4  2  0
  3  5  3  0
  4  3  1  0
  5  6  1  0
  6  8  1  1
  6  7  1  0
  9  6  1  0
 10  1  1  0
 10 11  1  0
 12 13  2  0
 12 11  1  0
 14 12  1  0
 15 13  1  0
 16 17  1  0
 16 14  2  0
 17 15  2  0
 18 10  1  0
 18 20  2  0
 19 18  1  0
 20 23  1  0
 21 19  2  0
 21 24  1  0
 22 20  1  0
 22 25  1  0
 23 26  1  0
 24 22  2  0
 25 27  1  0
 27 28  2  0
 27 26  1  0
 29 25  1  0
M  RAD  8   1   3   2   2   4   2   7   2   8   2   9   2  11   3  13   2
M  RAD  8  14   2  15   2  16   2  17   2  19   2  21   2  23   3  24   2
M  RAD  1  26   3
M  END
>  <vina_score>  (1) 
-7.7320000000000002

>  <pose_id>  (1) 
1

$$$$

     RDKit          3D

 29 31  0  0  0  0  0  0  0  0999 V2000
   20.2860    9.2550   19.0500 C   0  0  0  0  0  2  0  0  0  0  0  0
   21.4790    9.7810   18.3110 C   0  0  0  0  0  3  0  0  0  0  0  0
   23.0350    9.7580   16.4780 C   0  0  0  0  0  0  0  0  0  0  0  0
   21.9510    9.1770   17.2200 C   0  0  0  0  0  3  0  0  0  0  0  0
   23.9350   10.2570   15.8500 C   0  0  0  0  0  0  0  0  0  0  0  0
   25.0330   10.8610   15.0720 C   0  0  1  0  0  0  0  0  0  0  0  0
   26.3700   10.2670   15.5450 C   0  0  0  0  0  1  0  0  0  0  0  0
   24.8180   10.5480   13.5820 C   0  0  0  0  0  1  0  0  0  0  0  0
   25.0270   12.3820   15.2950 C   0  0  0  0  0  1  0  0  0  0  0  0
   19.2120   10.2520   19.0450 N   0  0  0  0  0  0  0  0  0  0  0  0
   19.3880   11.5410   18.3630 C   0  0  0  0  0  2  0  0  0  0  0  0
   18.4740   11.6410   17.1690 C   0  0  0  0  0  0  0  0  0  0  0  0
   17.5570   12.7020   17.0700 C   0  0  0  0  0  3  0  0  0  0  0  0
   18.5740   10.7170   16.1170 C   0  0  0  0  0  3  0  0  0  0  0  0
   16.7490   12.8290   15.9360 C   0  0  0  0  0  3  0  0  0  0  0  0
   17.7650   10.8480   14.9840 C   0  0  0  0  0  3  0  0  0  0  0  0
   16.8530   11.9030   14.8940 C   0  0  0  0  0  3  0  0  0  0  0  0
   17.9860    9.9680   19.7410 C   0  0  0  0  0  0  0  0  0  0  0  0
   17.0430    9.1220   19.1430 C   0  0  0  0  0  3  0  0  0  0  0  0
   17.7300   10.5140   21.0180 C   0  0  0  0  0  0  0  0  0  0  0  0
   15.8670    8.7870   19.8140 C   0  0  0  0  0  3  0  0  0  0  0  0
   16.5400   10.1640   21.6940 C   0  0  0  0  0  0  0  0  0  0  0  0
   18.7540   11.3790   21.7250 C   0  0  0  0  0  2  0  0  0  0  0  0
   15.6170    9.3000   21.0870 C   0  0  0  0  0  3  0  0  0  0  0  0
   16.2670   10.7000   22.9960 N   0  0  0  0  0  0  0  0  0  0  0  0
   18.1000   12.4120   22.6500 C   0  0  0  0  0  2  0  0  0  0  0  0
   17.0660   11.7650   23.5210 C   0  0  0  0  0  0  0  0  0  0  0  0
   16.8520   12.2000   24.6830 O   0  0  0  0  0  0  0  0  0  0  0  0
   15.4930   10.3160   23.5570 H   0  0  0  0  0  0  0  0  0  0  0  0
  2  1  1  0
  3  4  1  0
  4  2  2  0
  5  3  3  0
  6  9  1  6
  6  7  1  0
  6  5  1  0
  8  6  1  0
 10  1  1  0
 10 18  1  0
 11 10  1  0
 12 11  1  0
 13 12  2  0
 14 12  1  0
 15 13  1  0
 16 14  2  0
 17 16  1  0
 17 15  2  0
 18 20  2  0
 19 18  1  0
 19 21  2  0
 20 22  1  0
 20 23  1  0
 21 24  1  0
 22 25  1  0
 23 26  1  0
 24 22  2  0
 25 27  1  0
 25 29  1  0
 26 27  1  0
 27 28  2  0
M  RAD  8   1   3   2   2   4   2   7   2   8   2   9   2  11   3  13   2
M  RAD  8  14   2  15   2  16   2  17   2  19   2  21   2  23   3  24   2
M  RAD  1  26   3
M  END
>  <vina_score>  (2) 
-7.4900000000000002

>  <pose_id>  (2) 
2

$$$$

     RDKit          3D

 29 31  0  0  0  0  0  0  0  0999 V2000
   18.0720   12.6680   13.4340 C   0  0  0  0  0  2  0  0  0  0  0  0
   19.3220   12.0180   13.9470 C   0  0  0  0  0  3  0  0  0  0  0  0
   21.5350   11.1230   13.6580 C   0  0  0  0  0  0  0  0  0  0  0  0
   20.3100   11.6550   13.1280 C   0  0  0  0  0  3  0  0  0  0  0  0
   22.5660   10.6900   14.1070 C   0  0  0  0  0  0  0  0  0  0  0  0
   23.8270   10.1680   14.6660 C   0  0  1  0  0  0  0  0  0  0  0  0
   24.9810   10.5150   13.7110 C   0  0  0  0  0  1  0  0  0  0  0  0
   24.0710   10.8180   16.0390 C   0  0  0  0  0  1  0  0  0  0  0  0
   23.7140    8.6430   14.8200 C   0  0  0  0  0  1  0  0  0  0  0  0
   18.2440   14.1230   13.3920 N   0  0  0  0  0  0  0  0  0  0  0  0
   18.4400   14.8910   14.6290 C   0  0  0  0  0  2  0  0  0  0  0  0
   17.1240   15.1300   15.3230 C   0  0  0  0  0  0  0  0  0  0  0  0
   16.6850   14.2470   16.3250 C   0  0  0  0  0  3  0  0  0  0  0  0
   16.3570   16.2660   15.0230 C   0  0  0  0  0  3  0  0  0  0  0  0
   15.4930   14.4980   17.0110 C   0  0  0  0  0  3  0  0  0  0  0  0
   15.1660   16.5150   15.7120 C   0  0  0  0  0  3  0  0  0  0  0  0
   14.7340   15.6310   16.7040 C   0  0  0  0  0  3  0  0  0  0  0  0
   18.1900   14.8000   12.1250 C   0  0  0  0  0  0  0  0  0  0  0  0
   16.9420   15.0780   11.5520 C   0  0  0  0  0  3  0  0  0  0  0  0
   19.3720   15.2000   11.4630 C   0  0  0  0  0  0  0  0  0  0  0  0
   16.8560   15.7780   10.3490 C   0  0  0  0  0  3  0  0  0  0  0  0
   19.2750   15.9160   10.2480 C   0  0  0  0  0  0  0  0  0  0  0  0
   20.7370   14.9770   12.0820 C   0  0  0  0  0  2  0  0  0  0  0  0
   18.0170   16.2020    9.7010 C   0  0  0  0  0  3  0  0  0  0  0  0
   20.4640   16.3410    9.5670 N   0  0  0  0  0  0  0  0  0  0  0  0
   21.8290   14.7830   11.0240 C   0  0  0  0  0  2  0  0  0  0  0  0
   21.7450   15.8490    9.9730 C   0  0  0  0  0  0  0  0  0  0  0  0
   22.7890   16.2610    9.4020 O   0  0  0  0  0  0  0  0  0  0  0  0
   20.3960   17.0040    8.7810 H   0  0  0  0  0  0  0  0  0  0  0  0
  1  2  1  0
  3  5  3  0
  4  3  1  0
  4  2  2  0
  5  6  1  0
  6  9  1  1
  6  8  1  0
  7  6  1  0
 10  1  1  0
 10 11  1  0
 11 12  1  0
 12 13  2  0
 13 15  1  0
 14 12  1  0
 14 16  2  0
 16 17  1  0
 17 15  2  0
 18 10  1  0
 19 18  1  0
 20 23  1  0
 20 18  2  0
 21 19  2  0
 22 20  1  0
 24 22  2  0
 24 21  1  0
 25 27  1  0
 25 22  1  0
 26 23  1  0
 27 26  1  0
 28 27  2  0
 29 25  1  0
M  RAD  8   1   3   2   2   4   2   7   2   8   2   9   2  11   3  13   2
M  RAD  8  14   2  15   2  16   2  17   2  19   2  21   2  23   3  24   2
M  RAD  1  26   3
M  END
>  <vina_score>  (3) 
-7.4880000000000004

>  <pose_id>  (3) 
3

$$$$

     RDKit          3D

 29 31  0  0  0  0  0  0  0  0999 V2000
   18.1890    9.5240   17.5450 C   0  0  0  0  0  2  0  0  0  0  0  0
   17.5180   10.8640   17.4910 C   0  0  0  0  0  3  0  0  0  0  0  0
   17.1420   13.0240   16.5040 C   0  0  0  0  0  0  0  0  0  0  0  0
   17.8680   11.7870   16.5950 C   0  0  0  0  0  3  0  0  0  0  0  0
   16.5220   14.0550   16.4220 C   0  0  0  0  0  0  0  0  0  0  0  0
   15.7600   15.3120   16.3100 C   0  0  1  0  0  0  0  0  0  0  0  0
   16.7330   16.4990   16.4120 C   0  0  0  0  0  1  0  0  0  0  0  0
   15.0400   15.3400   14.9520 C   0  0  0  0  0  1  0  0  0  0  0  0
   14.7320   15.3790   17.4510 C   0  0  0  0  0  1  0  0  0  0  0  0
   18.2460    9.0470   18.9290 N   0  0  0  0  0  0  0  0  0  0  0  0
   19.4540    8.3920   19.4480 C   0  0  0  0  0  2  0  0  0  0  0  0
   20.6850    8.9160   18.7530 C   0  0  0  0  0  0  0  0  0  0  0  0
   21.3300   10.0680   19.2340 C   0  0  0  0  0  3  0  0  0  0  0  0
   21.2340    8.2240   17.6610 C   0  0  0  0  0  3  0  0  0  0  0  0
   22.5040   10.5230   18.6260 C   0  0  0  0  0  3  0  0  0  0  0  0
   22.4100    8.6810   17.0570 C   0  0  0  0  0  3  0  0  0  0  0  0
   23.0430    9.8290   17.5390 C   0  0  0  0  0  3  0  0  0  0  0  0
   17.0930    9.2030   19.7740 C   0  0  0  0  0  0  0  0  0  0  0  0
   15.9110    8.5240   19.4470 C   0  0  0  0  0  3  0  0  0  0  0  0
   17.1410   10.0130   20.9300 C   0  0  0  0  0  0  0  0  0  0  0  0
   14.7920    8.6150   20.2750 C   0  0  0  0  0  3  0  0  0  0  0  0
   16.0050   10.0930   21.7660 C   0  0  0  0  0  0  0  0  0  0  0  0
   18.4190   10.7090   21.3520 C   0  0  0  0  0  2  0  0  0  0  0  0
   14.8380    9.3910   21.4330 C   0  0  0  0  0  3  0  0  0  0  0  0
   16.0390   10.9010   22.9510 N   0  0  0  0  0  0  0  0  0  0  0  0
   18.1460   12.0180   22.1010 C   0  0  0  0  0  2  0  0  0  0  0  0
   17.1190   11.8120   23.1740 C   0  0  0  0  0  0  0  0  0  0  0  0
   17.1680   12.4850   24.2370 O   0  0  0  0  0  0  0  0  0  0  0  0
   15.2810   10.8260   23.6450 H   0  0  0  0  0  0  0  0  0  0  0  0
  1 10  1  0
  2  1  1  0
  3  4  1  0
  4  2  2  0
  5  3  3  0
  6  7  1  6
  6  5  1  0
  6  9  1  0
  8  6  1  0
 10 11  1  0
 10 18  1  0
 12 13  2  0
 12 11  1  0
 14 12  1  0
 15 13  1  0
 16 17  1  0
 16 14  2  0
 17 15  2  0
 18 20  2  0
 19 18  1  0
 19 21  2  0
 20 23  1  0
 20 22  1  0
 21 24  1  0
 22 25  1  0
 23 26  1  0
 24 22  2  0
 25 27  1  0
 25 29  1  0
 26 27  1  0
 27 28  2  0
M  RAD  8   1   3   2   2   4   2   7   2   8   2   9   2  11   3  13   2
M  RAD  8  14   2  15   2  16   2  17   2  19   2  21   2  23   3  24   2
M  RAD  1  26   3
M  END
>  <vina_score>  (4) 
-7.4379999999999997

>  <pose_id>  (4) 
4

$$$$

     RDKit          3D

 29 31  0  0  0  0  0  0  0  0999 V2000
   20.4480   10.0120   19.4180 C   0  0  0  0  0  2  0  0  0  0  0  0
   21.6050   10.4810   18.5880 C   0  0  0  0  0  3  0  0  0  0  0  0
   23.4260   10.1110   17.0620 C   0  0  0  0  0  0  0  0  0  0  0  0
   22.3850    9.6260   17.9260 C   0  0  0  0  0  3  0  0  0  0  0  0
   24.2890   10.5210   16.3270 C   0  0  0  0  0  0  0  0  0  0  0  0
   25.3390   11.0350   15.4280 C   0  0  1  0  0  0  0  0  0  0  0  0
   25.2780   10.2670   14.0970 C   0  0  0  0  0  1  0  0  0  0  0  0
   25.0950   12.5330   15.1810 C   0  0  0  0  0  1  0  0  0  0  0  0
   26.7100   10.8280   16.0900 C   0  0  0  0  0  1  0  0  0  0  0  0
   19.1860   10.3220   18.7410 N   0  0  0  0  0  0  0  0  0  0  0  0
   18.4180   11.5220   19.0980 C   0  0  0  0  0  2  0  0  0  0  0  0
   17.8360   11.3900   20.4820 C   0  0  0  0  0  0  0  0  0  0  0  0
   16.6870   10.6090   20.6930 C   0  0  0  0  0  3  0  0  0  0  0  0
   18.4710   11.9900   21.5810 C   0  0  0  0  0  3  0  0  0  0  0  0
   16.1790   10.4380   21.9840 C   0  0  0  0  0  3  0  0  0  0  0  0
   17.9610   11.8160   22.8720 C   0  0  0  0  0  3  0  0  0  0  0  0
   16.8160   11.0410   23.0730 C   0  0  0  0  0  3  0  0  0  0  0  0
   18.6880    9.4210   17.7370 C   0  0  0  0  0  0  0  0  0  0  0  0
   18.0420    8.2430   18.1370 C   0  0  0  0  0  3  0  0  0  0  0  0
   18.8270    9.7140   16.3630 C   0  0  0  0  0  0  0  0  0  0  0  0
   17.5030    7.3750   17.1880 C   0  0  0  0  0  3  0  0  0  0  0  0
   18.2720    8.8320   15.4080 C   0  0  0  0  0  0  0  0  0  0  0  0
   19.4600   11.0080   15.8930 C   0  0  0  0  0  2  0  0  0  0  0  0
   17.6110    7.6690   15.8290 C   0  0  0  0  0  3  0  0  0  0  0  0
   18.3930    9.1190   14.0080 N   0  0  0  0  0  0  0  0  0  0  0  0
   20.1610   10.8510   14.5380 C   0  0  0  0  0  2  0  0  0  0  0  0
   19.2680   10.1560   13.5560 C   0  0  0  0  0  0  0  0  0  0  0  0
   19.3350   10.4350   12.3290 O   0  0  0  0  0  0  0  0  0  0  0  0
   17.8470    8.5750   13.3240 H   0  0  0  0  0  0  0  0  0  0  0  0
  2  1  1  0
  3  4  1  0
  4  2  2  0
  5  3  3  0
  6  9  1  1
  6  5  1  0
  7  6  1  0
  8  6  1  0
 10 11  1  0
 10  1  1  0
 11 12  1  0
 12 13  2  0
 12 14  1  0
 13 15  1  0
 14 16  2  0
 15 17  2  0
 16 17  1  0
 18 19  1  0
 18 10  1  0
 20 18  2  0
 21 19  2  0
 22 24  2  0
 22 20  1  0
 23 20  1  0
 24 21  1  0
 25 22  1  0
 26 23  1  0
 27 25  1  0
 27 26  1  0
 28 27  2  0
 29 25  1  0
M  RAD  8   1   3   2   2   4   2   7   2   8   2   9   2  11   3  13   2
M  RAD  8  14   2  15   2  16   2  17   2  19   2  21   2  23   3  24   2
M  RAD  1  26   3
M  END
>  <vina_score>  (5) 
-7.4089999999999998

>  <pose_id>  (5) 
5

$$$$
