
     RDKit          3D

 24 25  0  0  0  0  0  0  0  0999 V2000
   19.9480    8.7670   19.3720 C   0  0  0  0  0  2  0  0  0  0  0  0
   21.1020    9.3260   18.6620 C   0  0  0  0  0  0  0  0  0  0  0  0
   18.7430    9.5360   19.0540 N   0  0  0  0  0  0  0  0  0  0  0  0
   18.6860   10.4090   17.8800 C   0  0  0  0  0  1  0  0  0  0  0  0
   17.5760    9.4040   19.8780 C   0  0  0  0  0  0  0  0  0  0  0  0
   16.5980    8.4610   19.5320 C   0  0  0  0  0  3  0  0  0  0  0  0
   17.3920   10.2200   21.0160 C   0  0  0  0  0  0  0  0  0  0  0  0
   15.4380    8.3310   20.2970 C   0  0  0  0  0  3  0  0  0  0  0  0
   16.2080   10.0910   21.7780 C   0  0  0  0  0  0  0  0  0  0  0  0
   18.3750   11.3220   21.3630 C   0  0  0  0  0  2  0  0  0  0  0  0
   15.2410    9.1430   21.4130 C   0  0  0  0  0  3  0  0  0  0  0  0
   15.9990   10.9200   22.9290 N   0  0  0  0  0  0  0  0  0  0  0  0
   18.4410   11.5850   22.8720 C   0  0  0  0  0  2  0  0  0  0  0  0
   17.0630   11.7230   23.4470 C   0  0  0  0  0  0  0  0  0  0  0  0
   16.8570   12.4920   24.4240 O   0  0  0  0  0  0  0  0  0  0  0  0
   15.0760   10.9370   23.3860 H   0  0  0  0  0  0  0  0  0  0  0  0
   22.0460    9.7920   18.0740 C   0  0  0  0  0  0  0  0  0  0  0  0
   23.1540   10.3360   17.3920 C   0  0  0  0  0  0  0  0  0  0  0  0
   24.1040   10.7990   16.8100 C   0  0  0  0  0  0  0  0  0  0  0  0
   25.2650   11.3650   16.0960 C   0  0  1  0  0  0  0  0  0  0  0  0
   25.8710   10.2820   15.1960 C   0  0  0  0  0  1  0  0  0  0  0  0
   24.8160   12.5620   15.2410 C   0  0  0  0  0  1  0  0  0  0  0  0
   26.2430   11.7700   17.0230 O   0  0  0  0  0  0  0  0  0  0  0  0
   25.8730   11.7140   17.9390 H   0  0  0  0  0  0  0  0  0  0  0  0
  2  1  1  0
  3  1  1  0
  3  5  1  0
  4  3  1  0
  5  7  2  0
  6  5  1  0
  6  8  2  0
  7 10  1  0
  7  9  1  0
  8 11  1  0
  9 12  1  0
 10 13  1  0
 11  9  2  0
 12 16  1  0
 12 14  1  0
 13 14  1  0
 14 15  2  0
 17  2  3  0
 18 17  1  0
 19 18  3  0
 20 19  1  0
 20 23  1  0
 20 21  1  6
 22 20  1  0
 23 24  1  0
M  RAD  8   1   3   4   2   6   2   8   2  10   3  11   2  13   3  21   2
M  RAD  1  22   2
M  END
>  <vina_score>  (1) 
-7.8689999999999998

>  <pose_id>  (1) 
1

$$$$

     RDKit          3D

 24 25  0  0  0  0  0  0  0  0999 V2000
   14.5970   10.6710   19.7750 C   0  0  0  0  0  2  0  0  0  0  0  0
   15.1050   11.6020   18.7630 C   0  0  0  0  0  0  0  0  0  0  0  0
   15.6970    9.8690   20.3150 N   0  0  0  0  0  0  0  0  0  0  0  0
   15.9180    8.4900   19.8800 C   0  0  0  0  0  1  0  0  0  0  0  0
   16.6070   10.4540   21.2580 C   0  0  0  0  0  0  0  0  0  0  0  0
   16.1230   10.8750   22.5040 C   0  0  0  0  0  3  0  0  0  0  0  0
   17.9720   10.6290   20.9400 C   0  0  0  0  0  0  0  0  0  0  0  0
   16.9780   11.4750   23.4300 C   0  0  0  0  0  3  0  0  0  0  0  0
   18.8280   11.2500   21.8770 C   0  0  0  0  0  0  0  0  0  0  0  0
   18.5110   10.2850   19.5650 C   0  0  0  0  0  2  0  0  0  0  0  0
   18.3240   11.6650   23.1180 C   0  0  0  0  0  3  0  0  0  0  0  0
   20.2140   11.4470   21.5670 N   0  0  0  0  0  0  0  0  0  0  0  0
   19.9830    9.8560   19.6100 C   0  0  0  0  0  2  0  0  0  0  0  0
   20.7930   10.8300   20.4130 C   0  0  0  0  0  0  0  0  0  0  0  0
   21.9970   11.0520   20.1140 O   0  0  0  0  0  0  0  0  0  0  0  0
   20.7970   12.0360   22.1770 H   0  0  0  0  0  0  0  0  0  0  0  0
   15.5300   12.3650   17.9330 C   0  0  0  0  0  0  0  0  0  0  0  0
   16.0280   13.2630   16.9640 C   0  0  0  0  0  0  0  0  0  0  0  0
   16.4540   14.0310   16.1390 C   0  0  0  0  0  0  0  0  0  0  0  0
   16.9760   14.9710   15.1270 C   0  0  1  0  0  0  0  0  0  0  0  0
   17.9750   14.2310   14.2300 C   0  0  0  0  0  1  0  0  0  0  0  0
   15.8150   15.5150   14.2770 C   0  0  0  0  0  1  0  0  0  0  0  0
   17.6500   16.0300   15.7630 O   0  0  0  0  0  0  0  0  0  0  0  0
   17.4960   15.9800   16.7400 H   0  0  0  0  0  0  0  0  0  0  0  0
  1  3  1  0
  2  1  1  0
  3  5  1  0
  4  3  1  0
  5  6  1  0
  6  8  2  0
  7  5  2  0
  7  9  1  0
  9 11  2  0
 10 13  1  0
 10  7  1  0
 11  8  1  0
 12  9  1  0
 12 16  1  0
 13 14  1  0
 14 12  1  0
 15 14  2  0
 17  2  3  0
 18 17  1  0
 19 18  3  0
 20 23  1  0
 20 19  1  0
 20 21  1  6
 22 20  1  0
 23 24  1  0
M  RAD  8   1   3   4   2   6   2   8   2  10   3  11   2  13   3  21   2
M  RAD  1  22   2
M  END
>  <vina_score>  (2) 
-7.3879999999999999

>  <pose_id>  (2) 
2

$$$$

     RDKit          3D

 24 25  0  0  0  0  0  0  0  0999 V2000
   18.2440    9.2200   17.5700 C   0  0  0  0  0  2  0  0  0  0  0  0
   17.7100   10.5610   17.3120 C   0  0  0  0  0  0  0  0  0  0  0  0
   18.4170    9.0180   19.0100 N   0  0  0  0  0  0  0  0  0  0  0  0
   19.7440    8.8300   19.5970 C   0  0  0  0  0  1  0  0  0  0  0  0
   17.2730    9.0470   19.8750 C   0  0  0  0  0  0  0  0  0  0  0  0
   16.2120    8.1630   19.6340 C   0  0  0  0  0  3  0  0  0  0  0  0
   17.1940    9.9620   20.9480 C   0  0  0  0  0  0  0  0  0  0  0  0
   15.0720    8.1890   20.4400 C   0  0  0  0  0  3  0  0  0  0  0  0
   16.0310    9.9910   21.7510 C   0  0  0  0  0  0  0  0  0  0  0  0
   18.2730   11.0030   21.1760 C   0  0  0  0  0  2  0  0  0  0  0  0
   14.9800    9.1000   21.4920 C   0  0  0  0  0  3  0  0  0  0  0  0
   15.9280   10.9220   22.8370 N   0  0  0  0  0  0  0  0  0  0  0  0
   18.4130   11.3770   22.6570 C   0  0  0  0  0  2  0  0  0  0  0  0
   17.0710   11.6730   23.2570 C   0  0  0  0  0  0  0  0  0  0  0  0
   16.9610   12.5310   24.1740 O   0  0  0  0  0  0  0  0  0  0  0  0
   15.0270   11.0510   23.3170 H   0  0  0  0  0  0  0  0  0  0  0  0
   17.2710   11.6650   17.1080 C   0  0  0  0  0  0  0  0  0  0  0  0
   16.7550   12.9550   16.8650 C   0  0  0  0  0  0  0  0  0  0  0  0
   16.3120   14.0570   16.6550 C   0  0  0  0  0  0  0  0  0  0  0  0
   15.7660   15.4050   16.3980 C   0  0  1  0  0  0  0  0  0  0  0  0
   15.1550   15.4330   14.9920 C   0  0  0  0  0  1  0  0  0  0  0  0
   14.6880   15.7360   17.4420 C   0  0  0  0  0  1  0  0  0  0  0  0
   16.8030   16.3550   16.4510 O   0  0  0  0  0  0  0  0  0  0  0  0
   17.1710   16.3910   17.3680 H   0  0  0  0  0  0  0  0  0  0  0  0
  1  3  1  0
  2  1  1  0
  3  4  1  0
  3  5  1  0
  5  7  2  0
  6  5  1  0
  6  8  2  0
  7 10  1  0
  7  9  1  0
  8 11  1  0
  9 12  1  0
 10 13  1  0
 11  9  2  0
 12 14  1  0
 12 16  1  0
 13 14  1  0
 14 15  2  0
 17  2  3  0
 18 17  1  0
 19 18  3  0
 20 23  1  0
 20 19  1  0
 20 22  1  1
 21 20  1  0
 23 24  1  0
M  RAD  8   1   3   4   2   6   2   8   2  10   3  11   2  13   3  21   2
M  RAD  1  22   2
M  END
>  <vina_score>  (3) 
-7.3440000000000003

>  <pose_id>  (3) 
3

$$$$

     RDKit          3D

 24 25  0  0  0  0  0  0  0  0999 V2000
   22.7990   13.9480   10.9280 C   0  0  0  0  0  2  0  0  0  0  0  0
   23.4230   13.2510   12.0560 C   0  0  0  0  0  0  0  0  0  0  0  0
   22.0610   15.1190   11.4080 N   0  0  0  0  0  0  0  0  0  0  0  0
   22.6850   16.0980   12.2990 C   0  0  0  0  0  1  0  0  0  0  0  0
   20.7140   15.3410   10.9660 C   0  0  0  0  0  0  0  0  0  0  0  0
   20.4950   16.0120    9.7550 C   0  0  0  0  0  3  0  0  0  0  0  0
   19.6140   14.9140   11.7410 C   0  0  0  0  0  0  0  0  0  0  0  0
   19.1960   16.2700    9.3140 C   0  0  0  0  0  3  0  0  0  0  0  0
   18.3020   15.1910   11.2940 C   0  0  0  0  0  0  0  0  0  0  0  0
   19.8090   14.2810   13.1050 C   0  0  0  0  0  2  0  0  0  0  0  0
   18.1030   15.8650   10.0800 C   0  0  0  0  0  3  0  0  0  0  0  0
   17.1720   14.7760   12.0740 N   0  0  0  0  0  0  0  0  0  0  0  0
   18.6920   13.2870   13.4480 C   0  0  0  0  0  2  0  0  0  0  0  0
   17.3460   13.8940   13.1870 C   0  0  0  0  0  0  0  0  0  0  0  0
   16.3580   13.5780   13.9030 O   0  0  0  0  0  0  0  0  0  0  0  0
   16.2310   15.1140   11.8310 H   0  0  0  0  0  0  0  0  0  0  0  0
   23.9330   12.6830   12.9890 C   0  0  0  0  0  0  0  0  0  0  0  0
   24.5310   12.0140   14.0780 C   0  0  0  0  0  0  0  0  0  0  0  0
   25.0450   11.4410   15.0060 C   0  0  0  0  0  0  0  0  0  0  0  0
   25.6730   10.7380   16.1420 C   0  0  1  0  0  0  0  0  0  0  0  0
   24.5860    9.9930   16.9270 C   0  0  0  0  0  1  0  0  0  0  0  0
   26.7180    9.7370   15.6200 C   0  0  0  0  0  1  0  0  0  0  0  0
   26.2810   11.6710   17.0020 O   0  0  0  0  0  0  0  0  0  0  0  0
   26.6390   11.2030   17.7980 H   0  0  0  0  0  0  0  0  0  0  0  0
  1  3  1  0
  1  2  1  0
  2 17  3  0
  3  4  1  0
  5  3  1  0
  5  7  2  0
  6  5  1  0
  7 10  1  0
  8  6  2  0
  8 11  1  0
  9  7  1  0
  9 12  1  0
 10 13  1  0
 11  9  2  0
 12 14  1  0
 14 13  1  0
 14 15  2  0
 16 12  1  0
 17 18  1  0
 18 19  3  0
 19 20  1  0
 20 21  1  1
 20 23  1  0
 22 20  1  0
 23 24  1  0
M  RAD  8   1   3   4   2   6   2   8   2  10   3  11   2  13   3  21   2
M  RAD  1  22   2
M  END
>  <vina_score>  (4) 
-7.0629999999999997

>  <pose_id>  (4) 
4

$$$$

     RDKit          3D

 24 25  0  0  0  0  0  0  0  0999 V2000
   16.5420   13.3500   13.3590 C   0  0  0  0  0  2  0  0  0  0  0  0
   17.1660   12.9990   14.6380 C   0  0  0  0  0  0  0  0  0  0  0  0
   16.5980   14.7990   13.1550 N   0  0  0  0  0  0  0  0  0  0  0  0
   16.3390   15.7320   14.2530 C   0  0  0  0  0  1  0  0  0  0  0  0
   16.9560   15.3240   11.8680 C   0  0  0  0  0  0  0  0  0  0  0  0
   15.9510   15.8320   11.0340 C   0  0  0  0  0  3  0  0  0  0  0  0
   18.2980   15.3150   11.4260 C   0  0  0  0  0  0  0  0  0  0  0  0
   16.2650   16.3210    9.7650 C   0  0  0  0  0  3  0  0  0  0  0  0
   18.6050   15.8000   10.1340 C   0  0  0  0  0  0  0  0  0  0  0  0
   19.3960   14.6780   12.2540 C   0  0  0  0  0  2  0  0  0  0  0  0
   17.5850   16.3030    9.3140 C   0  0  0  0  0  3  0  0  0  0  0  0
   19.9590   15.7870    9.6640 N   0  0  0  0  0  0  0  0  0  0  0  0
   20.7570   15.3480   12.0270 C   0  0  0  0  0  2  0  0  0  0  0  0
   21.0350   15.4950   10.5610 C   0  0  0  0  0  0  0  0  0  0  0  0
   22.2170   15.4300   10.1290 O   0  0  0  0  0  0  0  0  0  0  0  0
   20.1590   15.9890    8.6740 H   0  0  0  0  0  0  0  0  0  0  0  0
   17.6790   12.7180   15.6920 C   0  0  0  0  0  0  0  0  0  0  0  0
   18.2810   12.3960   16.9270 C   0  0  0  0  0  0  0  0  0  0  0  0
   18.7940   12.1220   17.9830 C   0  0  0  0  0  0  0  0  0  0  0  0
   19.4200   11.7850   19.2770 C   0  0  1  0  0  0  0  0  0  0  0  0
   18.3230   11.3950   20.2740 C   0  0  0  0  0  1  0  0  0  0  0  0
   20.3970   10.6120   19.0910 C   0  0  0  0  0  1  0  0  0  0  0  0
   20.1010   12.9090   19.7830 O   0  0  0  0  0  0  0  0  0  0  0  0
   20.1080   13.6260   19.1000 H   0  0  0  0  0  0  0  0  0  0  0  0
  1  2  1  0
  2 17  3  0
  3  1  1  0
  3  4  1  0
  5  3  1  0
  6  5  1  0
  7  5  2  0
  7 10  1  0
  8  6  2  0
  9  7  1  0
 11  8  1  0
 11  9  2  0
 12  9  1  0
 12 14  1  0
 13 10  1  0
 14 13  1  0
 15 14  2  0
 16 12  1  0
 17 18  1  0
 18 19  3  0
 19 20  1  0
 20 23  1  0
 20 21  1  1
 22 20  1  0
 24 23  1  0
M  RAD  8   1   3   4   2   6   2   8   2  10   3  11   2  13   3  21   2
M  RAD  1  22   2
M  END
>  <vina_score>  (5) 
-6.952

>  <pose_id>  (5) 
5

$$$$
