
     RDKit          3D

 24 25  0  0  0  0  0  0  0  0999 V2000
   20.1080    9.3380   19.3010 C   0  0  0  0  0  2  0  0  0  0  0  0
   18.8010    9.8970   18.9420 N   0  0  0  0  0  0  0  0  0  0  0  0
   18.6080   10.5640   17.6480 C   0  0  0  0  0  2  0  0  0  0  0  0
   18.3960   12.0630   17.8310 C   0  0  0  0  0  1  0  0  0  0  0  0
   17.6680    9.6390   19.7860 C   0  0  0  0  0  0  0  0  0  0  0  0
   16.7370    8.6630   19.4020 C   0  0  0  0  0  3  0  0  0  0  0  0
   17.4620   10.3750   20.9760 C   0  0  0  0  0  0  0  0  0  0  0  0
   15.6050    8.4210   20.1790 C   0  0  0  0  0  3  0  0  0  0  0  0
   16.3060   10.1300   21.7490 C   0  0  0  0  0  0  0  0  0  0  0  0
   18.3850   11.5110   21.3680 C   0  0  0  0  0  2  0  0  0  0  0  0
   15.3870    9.1520   21.3470 C   0  0  0  0  0  3  0  0  0  0  0  0
   16.0720   10.8780   22.9520 N   0  0  0  0  0  0  0  0  0  0  0  0
   18.4680   11.6930   22.8880 C   0  0  0  0  0  2  0  0  0  0  0  0
   17.0990   11.7110   23.4970 C   0  0  0  0  0  0  0  0  0  0  0  0
   16.8710   12.4050   24.5220 O   0  0  0  0  0  0  0  0  0  0  0  0
   15.1600   10.8150   23.4250 H   0  0  0  0  0  0  0  0  0  0  0  0
   21.1110    9.6150   18.2220 C   0  0  0  0  0  3  0  0  0  0  0  0
   22.2420   10.2730   18.4810 C   0  0  0  0  0  3  0  0  0  0  0  0
   23.1840   10.5510   17.4320 C   0  0  0  0  0  0  0  0  0  0  0  0
   23.9710   10.7860   16.5510 C   0  0  0  0  0  0  0  0  0  0  0  0
   24.9340   11.0760   15.4710 C   0  0  1  0  0  0  0  0  0  0  0  0
   26.3620   10.8700   16.0040 C   0  0  0  0  0  1  0  0  0  0  0  0
   24.6700   10.1230   14.2950 C   0  0  0  0  0  1  0  0  0  0  0  0
   24.7510   12.5330   15.0150 C   0  0  0  0  0  1  0  0  0  0  0  0
  2  1  1  0
  2  5  1  0
  3  4  1  0
  3  2  1  0
  5  7  2  0
  6  5  1  0
  6  8  2  0
  7 10  1  0
  7  9  1  0
  8 11  1  0
  9 12  1  0
 10 13  1  0
 11  9  2  0
 12 16  1  0
 12 14  1  0
 13 14  1  0
 14 15  2  0
 17 18  2  0
 17  1  1  0
 19 18  1  0
 20 19  3  0
 21 22  1  1
 21 20  1  0
 23 21  1  0
 24 21  1  0
M  RAD  8   1   3   3   3   4   2   6   2   8   2  10   3  11   2  13   3
M  RAD  5  17   2  18   2  22   2  23   2  24   2
M  END
>  <vina_score>  (1) 
-7.5129999999999999

>  <pose_id>  (1) 
1

$$$$

     RDKit          3D

 24 25  0  0  0  0  0  0  0  0999 V2000
   19.4960   10.3940   17.8900 C   0  0  0  0  0  2  0  0  0  0  0  0
   19.4690   10.0850   19.3240 N   0  0  0  0  0  0  0  0  0  0  0  0
   20.6720   10.2710   20.1460 C   0  0  0  0  0  2  0  0  0  0  0  0
   21.9100   10.4440   19.2730 C   0  0  0  0  0  1  0  0  0  0  0  0
   18.2180    9.7660   19.9520 C   0  0  0  0  0  0  0  0  0  0  0  0
   17.4170    8.7540   19.4060 C   0  0  0  0  0  3  0  0  0  0  0  0
   17.7710   10.4790   21.0890 C   0  0  0  0  0  0  0  0  0  0  0  0
   16.1770    8.4510   19.9700 C   0  0  0  0  0  3  0  0  0  0  0  0
   16.5090   10.1730   21.6440 C   0  0  0  0  0  0  0  0  0  0  0  0
   18.5560   11.6510   21.6420 C   0  0  0  0  0  2  0  0  0  0  0  0
   15.7220    9.1590   21.0820 C   0  0  0  0  0  3  0  0  0  0  0  0
   16.0310   10.8960   22.7880 N   0  0  0  0  0  0  0  0  0  0  0  0
   18.3600   11.8190   23.1540 C   0  0  0  0  0  2  0  0  0  0  0  0
   16.9050   11.7690   23.5090 C   0  0  0  0  0  0  0  0  0  0  0  0
   16.4670   12.4400   24.4800 O   0  0  0  0  0  0  0  0  0  0  0  0
   15.0530   10.7860   23.0920 H   0  0  0  0  0  0  0  0  0  0  0  0
   18.8020   11.6950   17.6200 C   0  0  0  0  0  3  0  0  0  0  0  0
   17.6410   11.7370   16.9650 C   0  0  0  0  0  3  0  0  0  0  0  0
   16.9980   12.9930   16.6950 C   0  0  0  0  0  0  0  0  0  0  0  0
   16.4620   14.0480   16.4660 C   0  0  0  0  0  0  0  0  0  0  0  0
   15.8030   15.3370   16.1860 C   0  0  1  0  0  0  0  0  0  0  0  0
   16.8680   16.4470   16.1500 C   0  0  0  0  0  1  0  0  0  0  0  0
   15.0900   15.2520   14.8290 C   0  0  0  0  0  1  0  0  0  0  0  0
   14.7820   15.6290   17.2980 C   0  0  0  0  0  1  0  0  0  0  0  0
  1  2  1  0
  2  5  1  0
  2  3  1  0
  4  3  1  0
  5  7  2  0
  6  5  1  0
  6  8  2  0
  7 10  1  0
  7  9  1  0
  8 11  1  0
  9 12  1  0
 10 13  1  0
 11  9  2  0
 12 16  1  0
 12 14  1  0
 13 14  1  0
 14 15  2  0
 17  1  1  0
 18 17  2  0
 19 18  1  0
 20 19  3  0
 21 20  1  0
 21 24  1  1
 22 21  1  0
 23 21  1  0
M  RAD  8   1   3   3   3   4   2   6   2   8   2  10   3  11   2  13   3
M  RAD  5  17   2  18   2  22   2  23   2  24   2
M  END
>  <vina_score>  (2) 
-7.3600000000000003

>  <pose_id>  (2) 
2

$$$$

     RDKit          3D

 24 25  0  0  0  0  0  0  0  0999 V2000
   16.2070   12.9670   15.1710 C   0  0  0  0  0  2  0  0  0  0  0  0
   16.5580   14.3700   14.9260 N   0  0  0  0  0  0  0  0  0  0  0  0
   16.5250   15.3480   16.0220 C   0  0  0  0  0  2  0  0  0  0  0  0
   15.0960   15.7960   16.3110 C   0  0  0  0  0  1  0  0  0  0  0  0
   17.1010   14.7480   13.6510 C   0  0  0  0  0  0  0  0  0  0  0  0
   16.2270   15.0890   12.6090 C   0  0  0  0  0  3  0  0  0  0  0  0
   18.4970   14.7480   13.4240 C   0  0  0  0  0  0  0  0  0  0  0  0
   16.7230   15.4180   11.3480 C   0  0  0  0  0  3  0  0  0  0  0  0
   18.9880   15.0720   12.1400 C   0  0  0  0  0  0  0  0  0  0  0  0
   19.4680   14.2810   14.4890 C   0  0  0  0  0  2  0  0  0  0  0  0
   18.0980   15.4070   11.1110 C   0  0  0  0  0  3  0  0  0  0  0  0
   20.4010   15.0620   11.8860 N   0  0  0  0  0  0  0  0  0  0  0  0
   20.8290   14.9780   14.3800 C   0  0  0  0  0  2  0  0  0  0  0  0
   21.3290   14.9460   12.9670 C   0  0  0  0  0  0  0  0  0  0  0  0
   22.5650   14.8860   12.7350 O   0  0  0  0  0  0  0  0  0  0  0  0
   20.7480   15.1380   10.9190 H   0  0  0  0  0  0  0  0  0  0  0  0
   16.7830   12.5030   16.4750 C   0  0  0  0  0  3  0  0  0  0  0  0
   16.0060   12.0100   17.4390 C   0  0  0  0  0  3  0  0  0  0  0  0
   16.5710   11.5890   18.6920 C   0  0  0  0  0  0  0  0  0  0  0  0
   17.0450   11.2400   19.7430 C   0  0  0  0  0  0  0  0  0  0  0  0
   17.6240   10.8140   21.0310 C   0  0  1  0  0  0  0  0  0  0  0  0
   18.1630    9.3810   20.8880 C   0  0  0  0  0  1  0  0  0  0  0  0
   18.7680   11.7690   21.4070 C   0  0  0  0  0  1  0  0  0  0  0  0
   16.5310   10.8570   22.1100 C   0  0  0  0  0  1  0  0  0  0  0  0
  1 17  1  0
  2  1  1  0
  2  3  1  0
  3  4  1  0
  5  2  1  0
  6  5  1  0
  7  5  2  0
  7 10  1  0
  8  6  2  0
  9  7  1  0
 11  8  1  0
 11  9  2  0
 12  9  1  0
 12 14  1  0
 13 10  1  0
 14 13  1  0
 15 14  2  0
 16 12  1  0
 17 18  2  0
 18 19  1  0
 19 20  3  0
 20 21  1  0
 21 23  1  1
 21 24  1  0
 22 21  1  0
M  RAD  8   1   3   3   3   4   2   6   2   8   2  10   3  11   2  13   3
M  RAD  5  17   2  18   2  22   2  23   2  24   2
M  END
>  <vina_score>  (3) 
-6.665

>  <pose_id>  (3) 
3

$$$$

     RDKit          3D

 24 25  0  0  0  0  0  0  0  0999 V2000
   19.9280   10.3930   17.3490 C   0  0  0  0  0  2  0  0  0  0  0  0
   19.2960    9.5430   18.3640 N   0  0  0  0  0  0  0  0  0  0  0  0
   19.0380    8.1240   18.0880 C   0  0  0  0  0  2  0  0  0  0  0  0
   18.3240    7.9480   16.7520 C   0  0  0  0  0  1  0  0  0  0  0  0
   19.0900   10.0610   19.6870 C   0  0  0  0  0  0  0  0  0  0  0  0
   20.2020   10.4010   20.4700 C   0  0  0  0  0  3  0  0  0  0  0  0
   17.7880   10.1990   20.2210 C   0  0  0  0  0  0  0  0  0  0  0  0
   20.0340   10.8650   21.7750 C   0  0  0  0  0  3  0  0  0  0  0  0
   17.6290   10.6590   21.5470 C   0  0  0  0  0  0  0  0  0  0  0  0
   16.5670    9.7400   19.4480 C   0  0  0  0  0  2  0  0  0  0  0  0
   18.7540   10.9910   22.3140 C   0  0  0  0  0  3  0  0  0  0  0  0
   16.3160   10.7910   22.1110 N   0  0  0  0  0  0  0  0  0  0  0  0
   15.3180   10.5590   19.7960 C   0  0  0  0  0  2  0  0  0  0  0  0
   15.1570   10.6770   21.2810 C   0  0  0  0  0  0  0  0  0  0  0  0
   14.0070   10.7420   21.7900 O   0  0  0  0  0  0  0  0  0  0  0  0
   16.2070   10.9690   23.1200 H   0  0  0  0  0  0  0  0  0  0  0  0
   19.1500   11.6610   17.1690 C   0  0  0  0  0  3  0  0  0  0  0  0
   17.9090   11.6490   16.6810 C   0  0  0  0  0  3  0  0  0  0  0  0
   17.1840   12.8750   16.4930 C   0  0  0  0  0  0  0  0  0  0  0  0
   16.5780   13.9040   16.3330 C   0  0  0  0  0  0  0  0  0  0  0  0
   15.8370   15.1640   16.1350 C   0  0  1  0  0  0  0  0  0  0  0  0
   14.7950   15.3140   17.2560 C   0  0  0  0  0  1  0  0  0  0  0  0
   16.8250   16.3390   16.1770 C   0  0  0  0  0  1  0  0  0  0  0  0
   15.1320   15.1200   14.7690 C   0  0  0  0  0  1  0  0  0  0  0  0
  1  2  1  0
  2  5  1  0
  3  2  1  0
  4  3  1  0
  5  7  2  0
  5  6  1  0
  6  8  2  0
  7  9  1  0
  8 11  1  0
  9 12  1  0
  9 11  2  0
 10 13  1  0
 10  7  1  0
 12 16  1  0
 13 14  1  0
 14 15  2  0
 14 12  1  0
 17  1  1  0
 18 17  2  0
 19 18  1  0
 20 19  3  0
 21 23  1  6
 21 20  1  0
 21 22  1  0
 24 21  1  0
M  RAD  8   1   3   3   3   4   2   6   2   8   2  10   3  11   2  13   3
M  RAD  5  17   2  18   2  22   2  23   2  24   2
M  END
>  <vina_score>  (4) 
-6.6130000000000004

>  <pose_id>  (4) 
4

$$$$

     RDKit          3D

 24 25  0  0  0  0  0  0  0  0999 V2000
   22.9060   14.8150   12.3870 C   0  0  0  0  0  2  0  0  0  0  0  0
   23.2490   13.3900   12.3450 N   0  0  0  0  0  0  0  0  0  0  0  0
   23.6630   12.7630   11.0830 C   0  0  0  0  0  2  0  0  0  0  0  0
   24.0770   13.8150   10.0590 C   0  0  0  0  0  1  0  0  0  0  0  0
   23.3470   12.6520   13.5730 C   0  0  0  0  0  0  0  0  0  0  0  0
   24.4910   12.7980   14.3700 C   0  0  0  0  0  3  0  0  0  0  0  0
   22.3250   11.7580   13.9690 C   0  0  0  0  0  0  0  0  0  0  0  0
   24.6330   12.0620   15.5460 C   0  0  0  0  0  3  0  0  0  0  0  0
   22.4840   11.0090   15.1560 C   0  0  0  0  0  0  0  0  0  0  0  0
   21.1260   11.4900   13.0820 C   0  0  0  0  0  2  0  0  0  0  0  0
   23.6360   11.1680   15.9380 C   0  0  0  0  0  3  0  0  0  0  0  0
   21.4650   10.0850   15.5660 N   0  0  0  0  0  0  0  0  0  0  0  0
   19.8760   11.1240   13.8920 C   0  0  0  0  0  2  0  0  0  0  0  0
   20.1930   10.0740   14.9130 C   0  0  0  0  0  0  0  0  0  0  0  0
   19.3210    9.2280   15.2420 O   0  0  0  0  0  0  0  0  0  0  0  0
   21.6500    9.4260   16.3360 H   0  0  0  0  0  0  0  0  0  0  0  0
   21.4300   14.9930   12.5810 C   0  0  0  0  0  3  0  0  0  0  0  0
   20.5670   14.7390   11.5980 C   0  0  0  0  0  3  0  0  0  0  0  0
   19.1570   14.9360   11.7920 C   0  0  0  0  0  0  0  0  0  0  0  0
   17.9750   15.1050   11.9550 C   0  0  0  0  0  0  0  0  0  0  0  0
   16.5280   15.3120   12.1530 C   0  0  1  0  0  0  0  0  0  0  0  0
   15.9060   14.0180   12.7030 C   0  0  0  0  0  1  0  0  0  0  0  0
   16.3190   16.4600   13.1530 C   0  0  0  0  0  1  0  0  0  0  0  0
   15.8840   15.6700   10.8030 C   0  0  0  0  0  1  0  0  0  0  0  0
  1 17  1  0
  2  1  1  0
  2  5  1  0
  3  2  1  0
  4  3  1  0
  5  7  2  0
  5  6  1  0
  6  8  2  0
  7  9  1  0
  8 11  1  0
  9 12  1  0
  9 11  2  0
 10 13  1  0
 10  7  1  0
 12 16  1  0
 13 14  1  0
 14 15  2  0
 14 12  1  0
 18 19  1  0
 18 17  2  0
 19 20  3  0
 20 21  1  0
 21 22  1  1
 21 23  1  0
 24 21  1  0
M  RAD  8   1   3   3   3   4   2   6   2   8   2  10   3  11   2  13   3
M  RAD  5  17   2  18   2  22   2  23   2  24   2
M  END
>  <vina_score>  (5) 
-6.5579999999999998

>  <pose_id>  (5) 
5

$$$$
