
     RDKit          3D

 21 22  0  0  0  0  0  0  0  0999 V2000
   15.2990   11.6370   18.6820 C   0  0  0  0  0  0  0  0  0  0  0  0
   14.6560   10.8280   19.7210 C   0  0  0  0  0  2  0  0  0  0  0  0
   15.8330   12.3010   17.8300 C   0  0  0  0  0  0  0  0  0  0  0  0
   16.4590   13.0750   16.8290 C   0  0  0  0  0  0  0  0  0  0  0  0
   16.9930   13.7360   15.9740 C   0  0  0  0  0  0  0  0  0  0  0  0
   17.6420   14.5380   14.9330 C   0  0  0  0  0  2  0  0  0  0  0  0
   17.4740   16.0260   15.2220 C   0  0  0  0  0  1  0  0  0  0  0  0
   15.6530    9.9830   20.3830 N   0  0  0  0  0  0  0  0  0  0  0  0
   15.8420    8.5910   19.9770 C   0  0  0  0  0  1  0  0  0  0  0  0
   16.5710   10.5680   21.3170 C   0  0  0  0  0  0  0  0  0  0  0  0
   16.1000   10.9930   22.5680 C   0  0  0  0  0  3  0  0  0  0  0  0
   17.9420   10.7040   21.0010 C   0  0  0  0  0  0  0  0  0  0  0  0
   16.9810   11.5250   23.5110 C   0  0  0  0  0  3  0  0  0  0  0  0
   18.8270   11.2330   21.9660 C   0  0  0  0  0  0  0  0  0  0  0  0
   18.5000   10.1890   19.6880 C   0  0  0  0  0  2  0  0  0  0  0  0
   18.3390   11.6400   23.2150 C   0  0  0  0  0  3  0  0  0  0  0  0
   20.2230   11.3660   21.6660 N   0  0  0  0  0  0  0  0  0  0  0  0
   19.7100   11.0020   19.2130 C   0  0  0  0  0  2  0  0  0  0  0  0
   20.6950   11.1880   20.3280 C   0  0  0  0  0  0  0  0  0  0  0  0
   21.9280   11.2530   20.0790 O   0  0  0  0  0  0  0  0  0  0  0  0
   20.8900   11.5910   22.4180 H   0  0  0  0  0  0  0  0  0  0  0  0
  1  2  1  0
  2  8  1  0
  3  1  3  0
  4  3  1  0
  5  4  3  0
  6  7  1  0
  6  5  1  0
  8 10  1  0
  9  8  1  0
 10 11  1  0
 11 13  2  0
 12 10  2  0
 12 14  1  0
 14 16  2  0
 15 12  1  0
 16 13  1  0
 17 14  1  0
 17 21  1  0
 18 15  1  0
 18 19  1  0
 19 17  1  0
 20 19  2  0
M  RAD  8   2   3   6   3   7   2   9   2  11   2  13   2  15   3  16   2
M  RAD  1  18   3
M  END
>  <vina_score>  (1) 
-6.6299999999999999

>  <pose_id>  (1) 
1

$$$$

     RDKit          3D

 21 22  0  0  0  0  0  0  0  0999 V2000
   18.7770   11.8000   17.9430 C   0  0  0  0  0  0  0  0  0  0  0  0
   19.6880   11.0140   18.7800 C   0  0  0  0  0  2  0  0  0  0  0  0
   18.0250   12.4420   17.2550 C   0  0  0  0  0  0  0  0  0  0  0  0
   17.1470   13.1950   16.4460 C   0  0  0  0  0  0  0  0  0  0  0  0
   16.3970   13.8380   15.7550 C   0  0  0  0  0  0  0  0  0  0  0  0
   15.4860   14.6190   14.9130 C   0  0  0  0  0  2  0  0  0  0  0  0
   15.0100   15.8650   15.6520 C   0  0  0  0  0  1  0  0  0  0  0  0
   19.0820    9.7190   19.0960 N   0  0  0  0  0  0  0  0  0  0  0  0
   19.8330    8.4770   18.9140 C   0  0  0  0  0  1  0  0  0  0  0  0
   17.8070    9.6720   19.7520 C   0  0  0  0  0  0  0  0  0  0  0  0
   16.7370    9.0170   19.1250 C   0  0  0  0  0  3  0  0  0  0  0  0
   17.6210   10.2610   21.0230 C   0  0  0  0  0  0  0  0  0  0  0  0
   15.4980    8.9200   19.7610 C   0  0  0  0  0  3  0  0  0  0  0  0
   16.3670   10.1480   21.6630 C   0  0  0  0  0  0  0  0  0  0  0  0
   18.7730   10.9140   21.7620 C   0  0  0  0  0  2  0  0  0  0  0  0
   15.3140    9.4780   21.0260 C   0  0  0  0  0  3  0  0  0  0  0  0
   16.1650   10.7290   22.9590 N   0  0  0  0  0  0  0  0  0  0  0  0
   18.3050   12.0530   22.6760 C   0  0  0  0  0  2  0  0  0  0  0  0
   17.1390   11.6170   23.5120 C   0  0  0  0  0  0  0  0  0  0  0  0
   16.9830   12.0820   24.6720 O   0  0  0  0  0  0  0  0  0  0  0  0
   15.3140   10.5050   23.4930 H   0  0  0  0  0  0  0  0  0  0  0  0
  1  2  1  0
  2  8  1  0
  3  1  3  0
  4  3  1  0
  5  4  3  0
  6  7  1  0
  6  5  1  0
  8 10  1  0
  9  8  1  0
 10 12  2  0
 11 10  1  0
 11 13  2  0
 12 14  1  0
 12 15  1  0
 13 16  1  0
 14 17  1  0
 15 18  1  0
 16 14  2  0
 17 21  1  0
 17 19  1  0
 18 19  1  0
 19 20  2  0
M  RAD  8   2   3   6   3   7   2   9   2  11   2  13   2  15   3  16   2
M  RAD  1  18   3
M  END
>  <vina_score>  (2) 
-6.4770000000000003

>  <pose_id>  (2) 
2

$$$$

     RDKit          3D

 21 22  0  0  0  0  0  0  0  0999 V2000
   20.8580   11.9400   12.9510 C   0  0  0  0  0  0  0  0  0  0  0  0
   21.9160   12.9530   12.8900 C   0  0  0  0  0  2  0  0  0  0  0  0
   19.9850   11.1120   13.0020 C   0  0  0  0  0  0  0  0  0  0  0  0
   18.9610   10.1410   13.0590 C   0  0  0  0  0  0  0  0  0  0  0  0
   18.0880    9.3110   13.1060 C   0  0  0  0  0  0  0  0  0  0  0  0
   17.0260    8.3030   13.1630 C   0  0  0  0  0  2  0  0  0  0  0  0
   17.6130    6.9210   13.4300 C   0  0  0  0  0  1  0  0  0  0  0  0
   21.3280   14.2920   12.9510 N   0  0  0  0  0  0  0  0  0  0  0  0
   21.2880   15.0350   14.2110 C   0  0  0  0  0  1  0  0  0  0  0  0
   20.9440   14.9560   11.7390 C   0  0  0  0  0  0  0  0  0  0  0  0
   21.9390   15.4050   10.8580 C   0  0  0  0  0  3  0  0  0  0  0  0
   19.5820   15.1460   11.4140 C   0  0  0  0  0  0  0  0  0  0  0  0
   21.5910   16.0150    9.6520 C   0  0  0  0  0  3  0  0  0  0  0  0
   19.2400   15.7540   10.1850 C   0  0  0  0  0  0  0  0  0  0  0  0
   18.4790   14.6090   12.3060 C   0  0  0  0  0  2  0  0  0  0  0  0
   20.2490   16.1840    9.3130 C   0  0  0  0  0  3  0  0  0  0  0  0
   17.8630   15.9430    9.8340 N   0  0  0  0  0  0  0  0  0  0  0  0
   17.2070   15.4620   12.2320 C   0  0  0  0  0  2  0  0  0  0  0  0
   16.8340   15.7370   10.8060 C   0  0  0  0  0  0  0  0  0  0  0  0
   15.6230   15.8530   10.4790 O   0  0  0  0  0  0  0  0  0  0  0  0
   17.6120   16.2280    8.8770 H   0  0  0  0  0  0  0  0  0  0  0  0
  1  3  3  0
  2  1  1  0
  2  8  1  0
  3  4  1  0
  4  5  3  0
  5  6  1  0
  6  7  1  0
  8  9  1  0
 10  8  1  0
 11 10  1  0
 12 10  2  0
 12 15  1  0
 13 11  2  0
 14 12  1  0
 16 13  1  0
 16 14  2  0
 17 14  1  0
 17 19  1  0
 18 15  1  0
 19 18  1  0
 20 19  2  0
 21 17  1  0
M  RAD  8   2   3   6   3   7   2   9   2  11   2  13   2  15   3  16   2
M  RAD  1  18   3
M  END
>  <vina_score>  (3) 
-6.4459999999999997

>  <pose_id>  (3) 
3

$$$$

     RDKit          3D

 21 22  0  0  0  0  0  0  0  0999 V2000
   15.9940   14.7950   15.0390 C   0  0  0  0  0  0  0  0  0  0  0  0
   16.0740   15.7290   13.9120 C   0  0  0  0  0  2  0  0  0  0  0  0
   15.9270   14.0230   15.9610 C   0  0  0  0  0  0  0  0  0  0  0  0
   15.8500   13.1200   17.0440 C   0  0  0  0  0  0  0  0  0  0  0  0
   15.7840   12.3510   17.9700 C   0  0  0  0  0  0  0  0  0  0  0  0
   15.7020   11.4150   19.0950 C   0  0  0  0  0  2  0  0  0  0  0  0
   17.0680   11.2460   19.7510 C   0  0  0  0  0  1  0  0  0  0  0  0
   16.0360   14.9900   12.6480 N   0  0  0  0  0  0  0  0  0  0  0  0
   15.0970   13.8850   12.4550 C   0  0  0  0  0  1  0  0  0  0  0  0
   16.8010   15.4580   11.5280 C   0  0  0  0  0  0  0  0  0  0  0  0
   16.1340   16.0130   10.4260 C   0  0  0  0  0  3  0  0  0  0  0  0
   18.2120   15.3840   11.5290 C   0  0  0  0  0  0  0  0  0  0  0  0
   16.8560   16.5150    9.3430 C   0  0  0  0  0  3  0  0  0  0  0  0
   18.9340   15.9050   10.4330 C   0  0  0  0  0  0  0  0  0  0  0  0
   18.9700   14.8580   12.7330 C   0  0  0  0  0  2  0  0  0  0  0  0
   18.2500   16.4670    9.3470 C   0  0  0  0  0  3  0  0  0  0  0  0
   20.3680   15.8490   10.4230 N   0  0  0  0  0  0  0  0  0  0  0  0
   20.2960   14.1950   12.3390 C   0  0  0  0  0  2  0  0  0  0  0  0
   21.0670   15.0690   11.3960 C   0  0  0  0  0  0  0  0  0  0  0  0
   22.3260   15.0650   11.4160 O   0  0  0  0  0  0  0  0  0  0  0  0
   20.8960   16.3740    9.7120 H   0  0  0  0  0  0  0  0  0  0  0  0
  1  3  3  0
  2  1  1  0
  3  4  1  0
  4  5  3  0
  5  6  1  0
  6  7  1  0
  8  2  1  0
  9  8  1  0
 10 12  2  0
 10  8  1  0
 11 10  1  0
 12 15  1  0
 13 16  1  0
 13 11  2  0
 14 12  1  0
 16 14  2  0
 17 14  1  0
 17 19  1  0
 18 15  1  0
 19 20  2  0
 19 18  1  0
 21 17  1  0
M  RAD  8   2   3   6   3   7   2   9   2  11   2  13   2  15   3  16   2
M  RAD  1  18   3
M  END
>  <vina_score>  (4) 
-6.415

>  <pose_id>  (4) 
4

$$$$

     RDKit          3D

 21 22  0  0  0  0  0  0  0  0999 V2000
   16.1020   12.6130   13.4540 C   0  0  0  0  0  0  0  0  0  0  0  0
   15.1420   13.7200   13.4390 C   0  0  0  0  0  2  0  0  0  0  0  0
   16.8960   11.7070   13.4650 C   0  0  0  0  0  0  0  0  0  0  0  0
   17.8260   10.6450   13.4750 C   0  0  0  0  0  0  0  0  0  0  0  0
   18.6220    9.7390   13.4820 C   0  0  0  0  0  0  0  0  0  0  0  0
   19.5900    8.6390   13.4910 C   0  0  0  0  0  2  0  0  0  0  0  0
   18.8730    7.2960   13.5650 C   0  0  0  0  0  1  0  0  0  0  0  0
   15.8520   14.9950   13.3160 N   0  0  0  0  0  0  0  0  0  0  0  0
   16.0800   15.8400   14.4880 C   0  0  0  0  0  1  0  0  0  0  0  0
   16.4830   15.3400   12.0750 C   0  0  0  0  0  0  0  0  0  0  0  0
   15.6940   15.7900   11.0060 C   0  0  0  0  0  3  0  0  0  0  0  0
   17.8850   15.2490   11.9220 C   0  0  0  0  0  0  0  0  0  0  0  0
   16.2870   16.1730    9.8020 C   0  0  0  0  0  3  0  0  0  0  0  0
   18.4760   15.6500   10.7030 C   0  0  0  0  0  0  0  0  0  0  0  0
   18.7770   14.8380   13.0770 C   0  0  0  0  0  2  0  0  0  0  0  0
   17.6720   16.1090    9.6510 C   0  0  0  0  0  3  0  0  0  0  0  0
   19.8990   15.5760   10.5350 N   0  0  0  0  0  0  0  0  0  0  0  0
   20.0480   14.1220   12.6020 C   0  0  0  0  0  2  0  0  0  0  0  0
   20.7050   14.8890   11.4950 C   0  0  0  0  0  0  0  0  0  0  0  0
   21.9590   14.8720   11.3710 O   0  0  0  0  0  0  0  0  0  0  0  0
   20.3420   16.0210    9.7190 H   0  0  0  0  0  0  0  0  0  0  0  0
  1  3  3  0
  2  1  1  0
  3  4  1  0
  4  5  3  0
  5  6  1  0
  6  7  1  0
  8  2  1  0
  8  9  1  0
 10  8  1  0
 11 10  1  0
 12 10  2  0
 12 15  1  0
 13 11  2  0
 14 12  1  0
 16 13  1  0
 16 14  2  0
 17 14  1  0
 17 19  1  0
 18 15  1  0
 19 18  1  0
 20 19  2  0
 21 17  1  0
M  RAD  8   2   3   6   3   7   2   9   2  11   2  13   2  15   3  16   2
M  RAD  1  18   3
M  END
>  <vina_score>  (5) 
-6.2679999999999998

>  <pose_id>  (5) 
5

$$$$
